pglib_opf_case4601_goc.m
%%%%%%%%%%%%%%%%%%%%%%%%%%%%%%%%%%%%%%%%%%%%%%%%%%%%%%%%%%%%%%%%%%%%%%%%%%%
%%%%                                                                  %%%%%
%%%%    IEEE PES Power Grid Library - Optimal Power Flow - v20.04     %%%%%
%%%%          (https://github.com/power-grid-lib/pglib-opf)           %%%%%
%%%%               Benchmark Group - Typical Operations               %%%%%
%%%%                         12 - July - 2020                         %%%%%
%%%%                                                                  %%%%%
%%%%%%%%%%%%%%%%%%%%%%%%%%%%%%%%%%%%%%%%%%%%%%%%%%%%%%%%%%%%%%%%%%%%%%%%%%%
%
%   This is a synthetic 4,601 bus case, developed for use in ARPA-e's Grid
%   Optimization Competition, Challenge 1.
%
%   https://gocompetition.energy.gov/challenges/22/datasets
%
%   Copyright (c) 2020 University of Wisconsin-Madison
%   https://dev.epigrids.discovery.wisc.edu/
%   Licensed under the Creative Commons Attribution 4.0 International license,
%   http://creativecommons.org/licenses/by/4.0/
%
function mpc = pglib_opf_case4601_goc
mpc.version = '2';
mpc.baseMVA = 100.0;

%% bus data
%	bus_i	type	Pd	Qd	Gs	Bs	area	Vm	Va	baseKV	zone	Vmax	Vmin
mpc.bus = [
	1	 1	 0.0	 0.0	 0.0	 0.0	 1	    0.97500	    0.00000	 69.0	 1	    1.05000	    0.90000;
	2	 2	 0.0	 0.0	 0.0	 0.0	 1	    0.97500	    0.00000	 138.0	 1	    1.05000	    0.90000;
	3	 1	 0.0	 0.0	 0.0	 0.0	 1	    0.97500	    0.00000	 69.0	 1	    1.05000	    0.90000;
	4	 1	 0.0	 0.0	 0.0	 0.0	 1	    0.97500	    0.00000	 69.0	 1	    1.05000	    0.90000;
	5	 1	 0.0	 0.0	 0.0	 0.0	 1	    0.97500	    0.00000	 138.0	 1	    1.05000	    0.90000;
	6	 1	 0.0	 0.0	 0.0	 0.0	 1	    0.97500	    0.00000	 69.0	 1	    1.05000	    0.90000;
	7	 1	 0.0	 0.0	 0.0	 0.0	 1	    0.97500	    0.00000	 69.0	 1	    1.05000	    0.90000;
	8	 1	 0.0	 0.0	 0.0	 0.0	 1	    0.97500	    0.00000	 69.0	 1	    1.05000	    0.90000;
	9	 1	 0.0	 0.0	 0.0	 0.0	 1	    0.97500	    0.00000	 69.0	 1	    1.05000	    0.90000;
	10	 1	 0.0	 0.0	 0.0	 0.0	 1	    0.97500	    0.00000	 69.0	 1	    1.05000	    0.90000;
	11	 2	 0.0	 0.0	 0.0	 0.0	 1	    0.97500	    0.00000	 69.0	 1	    1.05000	    0.90000;
	12	 1	 0.0	 0.0	 0.0	 0.0	 1	    0.97500	    0.00000	 69.0	 1	    1.05000	    0.90000;
	13	 1	 0.0	 0.0	 0.0	 0.0	 1	    0.97500	    0.00000	 69.0	 1	    1.05000	    0.90000;
	14	 1	 0.0	 0.0	 0.0	 0.0	 1	    0.97500	    0.00000	 69.0	 1	    1.05000	    0.90000;
	15	 1	 0.0	 0.0	 0.0	 0.0	 1	    0.97500	    0.00000	 69.0	 1	    1.05000	    0.90000;
	16	 1	 0.0	 0.0	 0.0	 0.0	 1	    0.97500	    0.00000	 69.0	 1	    1.05000	    0.90000;
	17	 1	 0.0	 0.0	 0.0	 0.0	 1	    0.97500	    0.00000	 69.0	 1	    1.05000	    0.90000;
	18	 1	 0.0	 0.0	 0.0	 0.0	 1	    0.97500	    0.00000	 69.0	 1	    1.05000	    0.90000;
	19	 2	 0.0	 0.0	 0.0	 0.0	 1	    0.97500	    0.00000	 69.0	 1	    1.05000	    0.90000;
	20	 2	 0.0	 0.0	 0.0	 0.0	 1	    0.97500	    0.00000	 138.0	 1	    1.05000	    0.90000;
	21	 2	 0.0	 0.0	 0.0	 0.0	 1	    0.97500	    0.00000	 69.0	 1	    1.05000	    0.90000;
	22	 1	 0.0	 0.0	 0.0	 0.0	 1	    0.97500	    0.00000	 69.0	 1	    1.05000	    0.90000;
	23	 1	 0.0	 0.0	 0.0	 0.0	 1	    0.97500	    0.00000	 69.0	 1	    1.05000	    0.90000;
	24	 2	 0.0	 0.0	 0.0	 0.0	 1	    0.97500	    0.00000	 138.0	 1	    1.05000	    0.90000;
	25	 2	 0.0	 0.0	 0.0	 0.0	 1	    0.97500	    0.00000	 69.0	 1	    1.05000	    0.90000;
	26	 2	 0.0	 0.0	 0.0	 0.0	 1	    0.97500	    0.00000	 69.0	 1	    1.05000	    0.90000;
	27	 2	 0.0	 0.0	 0.0	 0.0	 1	    0.97500	    0.00000	 69.0	 1	    1.05000	    0.90000;
	28	 1	 0.0	 0.0	 0.0	 0.0	 1	    0.97500	    0.00000	 69.0	 1	    1.05000	    0.90000;
	29	 2	 0.0	 0.0	 0.0	 0.0	 1	    0.97500	    0.00000	 69.0	 1	    1.05000	    0.90000;
	30	 2	 0.0	 0.0	 0.0	 0.0	 1	    0.97500	    0.00000	 69.0	 1	    1.05000	    0.90000;
	31	 2	 0.0	 0.0	 0.0	 0.0	 1	    0.97500	    0.00000	 69.0	 1	    1.05000	    0.90000;
	32	 1	 0.0	 0.0	 0.0	 0.0	 1	    0.97500	    0.00000	 69.0	 1	    1.05000	    0.90000;
	33	 1	 0.0	 0.0	 0.0	 0.0	 1	    0.97500	    0.00000	 69.0	 1	    1.05000	    0.90000;
	34	 1	 0.0	 0.0	 0.0	 0.0	 1	    0.97500	    0.00000	 69.0	 1	    1.05000	    0.90000;
	35	 1	 0.0	 0.0	 0.0	 0.0	 1	    0.97500	    0.00000	 69.0	 1	    1.05000	    0.90000;
	36	 1	 0.0	 0.0	 0.0	 0.0	 1	    0.97500	    0.00000	 69.0	 1	    1.05000	    0.90000;
	37	 1	 0.0	 0.0	 0.0	 0.0	 1	    0.97500	    0.00000	 69.0	 1	    1.05000	    0.90000;
	38	 1	 0.0	 0.0	 0.0	 0.0	 1	    0.97500	    0.00000	 69.0	 1	    1.05000	    0.90000;
	39	 1	 0.0	 0.0	 0.0	 0.0	 1	    0.97500	    0.00000	 69.0	 1	    1.05000	    0.90000;
	40	 1	 0.0	 0.0	 0.0	 0.0	 1	    0.97500	    0.00000	 69.0	 1	    1.05000	    0.90000;
	41	 1	 0.0	 0.0	 0.0	 0.0	 1	    0.97500	    0.00000	 69.0	 1	    1.05000	    0.90000;
	42	 1	 0.0	 0.0	 0.0	 0.0	 1	    0.97500	    0.00000	 69.0	 1	    1.05000	    0.90000;
	43	 1	 0.0	 0.0	 0.0	 0.0	 1	    0.97500	    0.00000	 69.0	 1	    1.05000	    0.90000;
	44	 1	 0.0	 0.0	 0.0	 0.0	 1	    0.97500	    0.00000	 69.0	 1	    1.05000	    0.90000;
	45	 1	 0.0	 0.0	 0.0	 0.0	 1	    0.97500	    0.00000	 69.0	 1	    1.05000	    0.90000;
	46	 1	 0.0	 0.0	 0.0	 0.0	 1	    0.97500	    0.00000	 69.0	 1	    1.05000	    0.90000;
	47	 1	 0.0	 0.0	 0.0	 0.0	 1	    0.97500	    0.00000	 138.0	 1	    1.05000	    0.90000;
	48	 1	 0.0	 0.0	 0.0	 0.0	 1	    0.97500	    0.00000	 69.0	 1	    1.05000	    0.90000;
	49	 1	 0.0	 0.0	 0.0	 0.0	 1	    0.97500	    0.00000	 69.0	 1	    1.05000	    0.90000;
	50	 2	 0.0	 0.0	 0.0	 0.0	 1	    0.97500	    0.00000	 69.0	 1	    1.05000	    0.90000;
	51	 1	 0.0	 0.0	 0.0	 0.0	 1	    0.97500	    0.00000	 69.0	 1	    1.05000	    0.90000;
	52	 1	 0.0	 0.0	 0.0	 0.0	 1	    0.97500	    0.00000	 69.0	 1	    1.05000	    0.90000;
	53	 2	 0.0	 0.0	 0.0	 0.0	 1	    0.97500	    0.00000	 69.0	 1	    1.05000	    0.90000;
	54	 1	 0.0	 0.0	 0.0	 0.0	 1	    0.97500	    0.00000	 69.0	 1	    1.05000	    0.90000;
	55	 2	 0.0	 0.0	 0.0	 0.0	 1	    0.97500	    0.00000	 69.0	 1	    1.05000	    0.90000;
	56	 1	 0.0	 0.0	 0.0	 0.0	 1	    0.97500	    0.00000	 69.0	 1	    1.05000	    0.90000;
	57	 2	 0.0	 0.0	 0.0	 0.0	 1	    0.97500	    0.00000	 69.0	 1	    1.05000	    0.90000;
	58	 1	 0.0	 0.0	 0.0	 0.0	 1	    0.97500	    0.00000	 69.0	 1	    1.05000	    0.90000;
	59	 1	 0.0	 0.0	 0.0	 0.0	 1	    0.97500	    0.00000	 69.0	 1	    1.05000	    0.90000;
	60	 1	 0.0	 0.0	 0.0	 0.0	 1	    0.97500	    0.00000	 69.0	 1	    1.05000	    0.90000;
	61	 1	 0.0	 0.0	 0.0	 0.0	 1	    0.97500	    0.00000	 69.0	 1	    1.05000	    0.90000;
	62	 2	 0.0	 0.0	 0.0	 0.0	 1	    0.97500	    0.00000	 69.0	 1	    1.05000	    0.90000;
	63	 2	 0.0	 0.0	 0.0	 0.0	 1	    0.97500	    0.00000	 138.0	 1	    1.05000	    0.90000;
	64	 1	 0.0	 0.0	 0.0	 0.0	 1	    0.97500	    0.00000	 69.0	 1	    1.05000	    0.90000;
	65	 2	 0.0	 0.0	 0.0	 0.0	 1	    0.97500	    0.00000	 69.0	 1	    1.05000	    0.90000;
	66	 2	 0.0	 0.0	 0.0	 0.0	 1	    0.97500	    0.00000	 69.0	 1	    1.05000	    0.90000;
	67	 1	 0.0	 0.0	 0.0	 0.0	 1	    0.97500	    0.00000	 69.0	 1	    1.05000	    0.90000;
	68	 2	 0.0	 0.0	 0.0	 0.0	 1	    0.97500	    0.00000	 69.0	 1	    1.05000	    0.90000;
	69	 1	 0.0	 0.0	 0.0	 0.0	 1	    0.97500	    0.00000	 69.0	 1	    1.05000	    0.90000;
	70	 2	 0.0	 0.0	 0.0	 0.0	 1	    0.97500	    0.00000	 69.0	 1	    1.05000	    0.90000;
	71	 2	 0.0	 0.0	 0.0	 0.0	 1	    0.97500	    0.00000	 69.0	 1	    1.05000	    0.90000;
	72	 1	 0.0	 0.0	 0.0	 0.0	 1	    0.97500	    0.00000	 69.0	 1	    1.05000	    0.90000;
	73	 2	 0.0	 0.0	 0.0	 0.0	 1	    0.97500	    0.00000	 69.0	 1	    1.05000	    0.90000;
	74	 1	 0.0	 0.0	 0.0	 0.0	 1	    0.97500	    0.00000	 69.0	 1	    1.05000	    0.90000;
	75	 1	 0.0	 0.0	 0.0	 0.0	 1	    0.97500	    0.00000	 69.0	 1	    1.05000	    0.90000;
	76	 2	 0.0	 0.0	 0.0	 0.0	 1	    0.97500	    0.00000	 138.0	 1	    1.05000	    0.90000;
	77	 1	 0.0	 0.0	 0.0	 0.0	 1	    0.97500	    0.00000	 69.0	 1	    1.05000	    0.90000;
	78	 1	 0.0	 0.0	 0.0	 0.0	 1	    0.97500	    0.00000	 69.0	 1	    1.05000	    0.90000;
	79	 2	 0.0	 0.0	 0.0	 0.0	 1	    0.97500	    0.00000	 138.0	 1	    1.05000	    0.90000;
	80	 1	 0.0	 0.0	 0.0	 0.0	 1	    0.97500	    0.00000	 69.0	 1	    1.05000	    0.90000;
	81	 1	 0.0	 0.0	 0.0	 0.0	 1	    0.97500	    0.00000	 69.0	 1	    1.05000	    0.90000;
	82	 1	 0.0	 0.0	 0.0	 0.0	 1	    0.97500	    0.00000	 69.0	 1	    1.05000	    0.90000;
	83	 1	 0.0	 0.0	 0.0	 0.0	 1	    0.97500	    0.00000	 69.0	 1	    1.05000	    0.90000;
	84	 1	 0.0	 0.0	 0.0	 0.0	 1	    0.97500	    0.00000	 69.0	 1	    1.05000	    0.90000;
	85	 1	 0.0	 0.0	 0.0	 0.0	 1	    0.97500	    0.00000	 138.0	 1	    1.05000	    0.90000;
	86	 1	 0.0	 0.0	 0.0	 0.0	 1	    0.97500	    0.00000	 69.0	 1	    1.05000	    0.90000;
	87	 2	 0.0	 0.0	 0.0	 0.0	 1	    0.97500	    0.00000	 69.0	 1	    1.05000	    0.90000;
	88	 2	 0.0	 0.0	 0.0	 0.0	 1	    0.97500	    0.00000	 69.0	 1	    1.05000	    0.90000;
	89	 1	 0.0	 0.0	 0.0	 0.0	 1	    0.97500	    0.00000	 69.0	 1	    1.05000	    0.90000;
	90	 1	 0.0	 0.0	 0.0	 0.0	 1	    0.97500	    0.00000	 69.0	 1	    1.05000	    0.90000;
	91	 2	 0.0	 0.0	 0.0	 0.0	 1	    0.97500	    0.00000	 69.0	 1	    1.05000	    0.90000;
	92	 2	 0.0	 0.0	 0.0	 0.0	 1	    0.97500	    0.00000	 69.0	 1	    1.05000	    0.90000;
	93	 1	 0.0	 0.0	 0.0	 0.0	 1	    0.97500	    0.00000	 69.0	 1	    1.05000	    0.90000;
	94	 1	 0.0	 0.0	 0.0	 0.0	 1	    0.97500	    0.00000	 69.0	 1	    1.05000	    0.90000;
	95	 2	 0.0	 0.0	 0.0	 0.0	 1	    0.97500	    0.00000	 69.0	 1	    1.05000	    0.90000;
	96	 1	 0.0	 0.0	 0.0	 0.0	 1	    0.97500	    0.00000	 69.0	 1	    1.05000	    0.90000;
	97	 2	 0.0	 0.0	 0.0	 0.0	 1	    0.97500	    0.00000	 69.0	 1	    1.05000	    0.90000;
	98	 1	 0.0	 0.0	 0.0	 0.0	 1	    0.97500	    0.00000	 69.0	 1	    1.05000	    0.90000;
	99	 1	 0.0	 0.0	 0.0	 0.0	 1	    0.97500	    0.00000	 69.0	 1	    1.05000	    0.90000;
	100	 1	 0.0	 0.0	 0.0	 0.0	 1	    0.97500	    0.00000	 69.0	 1	    1.05000	    0.90000;
	101	 2	 0.0	 0.0	 0.0	 0.0	 1	    0.97500	    0.00000	 69.0	 1	    1.05000	    0.90000;
	102	 2	 0.0	 0.0	 0.0	 0.0	 1	    0.97500	    0.00000	 138.0	 1	    1.05000	    0.90000;
	103	 1	 0.0	 0.0	 0.0	 0.0	 1	    0.97500	    0.00000	 69.0	 1	    1.05000	    0.90000;
	104	 2	 0.0	 0.0	 0.0	 0.0	 1	    0.97500	    0.00000	 69.0	 1	    1.05000	    0.90000;
	105	 1	 0.0	 0.0	 0.0	 0.0	 1	    0.97500	    0.00000	 69.0	 1	    1.05000	    0.90000;
	106	 1	 0.0	 0.0	 0.0	 0.0	 1	    0.97500	    0.00000	 138.0	 1	    1.05000	    0.90000;
	107	 1	 0.0	 0.0	 0.0	 0.0	 1	    0.97500	    0.00000	 69.0	 1	    1.05000	    0.90000;
	108	 1	 0.0	 0.0	 0.0	 0.0	 1	    0.97500	    0.00000	 69.0	 1	    1.05000	    0.90000;
	109	 1	 0.0	 0.0	 0.0	 0.0	 1	    0.97500	    0.00000	 69.0	 1	    1.05000	    0.90000;
	110	 1	 0.0	 0.0	 0.0	 0.0	 1	    0.97500	    0.00000	 69.0	 1	    1.05000	    0.90000;
	111	 1	 0.0	 0.0	 0.0	 0.0	 1	    0.97500	    0.00000	 69.0	 1	    1.05000	    0.90000;
	112	 2	 0.0	 0.0	 0.0	 0.0	 1	    0.97500	    0.00000	 69.0	 1	    1.05000	    0.90000;
	113	 2	 0.0	 0.0	 0.0	 0.0	 1	    0.97500	    0.00000	 69.0	 1	    1.05000	    0.90000;
	114	 2	 0.0	 0.0	 0.0	 0.0	 1	    0.97500	    0.00000	 69.0	 1	    1.05000	    0.90000;
	115	 1	 0.0	 0.0	 0.0	 0.0	 1	    0.97500	    0.00000	 69.0	 1	    1.05000	    0.90000;
	116	 1	 0.0	 0.0	 0.0	 0.0	 1	    0.97500	    0.00000	 69.0	 1	    1.05000	    0.90000;
	117	 1	 0.0	 0.0	 0.0	 0.0	 1	    0.97500	    0.00000	 69.0	 1	    1.05000	    0.90000;
	118	 1	 0.0	 0.0	 0.0	 0.0	 1	    0.97500	    0.00000	 69.0	 1	    1.05000	    0.90000;
	119	 1	 0.0	 0.0	 0.0	 0.0	 1	    0.97500	    0.00000	 69.0	 1	    1.05000	    0.90000;
	120	 1	 0.0	 0.0	 0.0	 0.0	 1	    0.97500	    0.00000	 69.0	 1	    1.05000	    0.90000;
	121	 1	 0.0	 0.0	 0.0	 0.0	 1	    0.97500	    0.00000	 69.0	 1	    1.05000	    0.90000;
	122	 1	 0.0	 0.0	 0.0	 0.0	 1	    0.97500	    0.00000	 69.0	 1	    1.05000	    0.90000;
	123	 2	 0.0	 0.0	 0.0	 0.0	 1	    0.97500	    0.00000	 69.0	 1	    1.05000	    0.90000;
	124	 1	 0.0	 0.0	 0.0	 0.0	 1	    0.97500	    0.00000	 69.0	 1	    1.05000	    0.90000;
	125	 1	 0.0	 0.0	 0.0	 0.0	 1	    0.97500	    0.00000	 69.0	 1	    1.05000	    0.90000;
	126	 2	 0.0	 0.0	 0.0	 0.0	 1	    0.97500	    0.00000	 69.0	 1	    1.05000	    0.90000;
	127	 1	 0.0	 0.0	 0.0	 0.0	 1	    0.97500	    0.00000	 69.0	 1	    1.05000	    0.90000;
	128	 2	 0.0	 0.0	 0.0	 0.0	 1	    0.97500	    0.00000	 69.0	 1	    1.05000	    0.90000;
	129	 2	 0.0	 0.0	 0.0	 0.0	 1	    0.97500	    0.00000	 69.0	 1	    1.05000	    0.90000;
	130	 1	 0.0	 0.0	 0.0	 0.0	 1	    0.97500	    0.00000	 69.0	 1	    1.05000	    0.90000;
	131	 1	 0.0	 0.0	 0.0	 0.0	 1	    0.97500	    0.00000	 69.0	 1	    1.05000	    0.90000;
	132	 1	 6.04	 2.174	 0.0	 0.0	 1	    0.97500	    0.00000	 69.0	 1	    1.05000	    0.90000;
	133	 1	 5.09	 0.731	 0.0	 0.0	 1	    0.97500	    0.00000	 69.0	 1	    1.05000	    0.90000;
	134	 1	 8.531	 0.858	 0.0	 0.0	 1	    0.97500	    0.00000	 69.0	 1	    1.05000	    0.90000;
	135	 1	 4.563	 0.663	 0.0	 0.0	 1	    0.97500	    0.00000	 69.0	 1	    1.05000	    0.90000;
	136	 1	 11.135	 1.989	 0.0	 0.0	 1	    0.97500	    0.00000	 69.0	 1	    1.05000	    0.90000;
	137	 1	 4.504	 0.653	 0.0	 0.0	 1	    0.97500	    0.00000	 69.0	 1	    1.05000	    0.90000;
	138	 1	 7.244	 0.731	 0.0	 0.0	 1	    0.97500	    0.00000	 69.0	 1	    1.05000	    0.90000;
	139	 1	 8.853	 0.897	 0.0	 0.0	 1	    0.97500	    0.00000	 69.0	 1	    1.05000	    0.90000;
	140	 1	 4.456	 0.448	 0.0	 0.0	 1	    0.97500	    0.00000	 69.0	 1	    1.05000	    0.90000;
	141	 1	 7.595	 1.092	 0.0	 0.0	 1	    0.97500	    0.00000	 69.0	 1	    1.05000	    0.90000;
	142	 1	 4.144	 0.741	 0.0	 0.0	 1	    0.97500	    0.00000	 69.0	 1	    1.05000	    0.90000;
	143	 1	 7.761	 0.78	 0.0	 0.0	 1	    0.97500	    0.00000	 69.0	 1	    1.05000	    0.90000;
	144	 1	 7.215	 1.287	 0.0	 0.0	 1	    0.97500	    0.00000	 69.0	 1	    1.05000	    0.90000;
	145	 1	 5.684	 1.014	 0.0	 0.0	 1	    0.97500	    0.00000	 69.0	 1	    1.05000	    0.90000;
	146	 1	 3.559	 0.517	 0.0	 0.0	 1	    0.97500	    0.00000	 69.0	 1	    1.05000	    0.90000;
	147	 1	 13.299	 1.921	 0.0	 0.0	 1	    0.97500	    0.00000	 69.0	 1	    1.05000	    0.90000;
	148	 1	 3.139	 0.322	 0.0	 0.0	 1	    0.97500	    0.00000	 69.0	 1	    1.05000	    0.90000;
	149	 1	 3.18	 0.887	 0.0	 0.0	 1	    0.97500	    0.00000	 69.0	 1	    1.05000	    0.90000;
	150	 1	 3.286	 0.478	 0.0	 0.0	 1	    0.97500	    0.00000	 69.0	 1	    1.05000	    0.90000;
	151	 1	 4.173	 0.419	 0.0	 0.0	 1	    0.97500	    0.00000	 69.0	 1	    1.05000	    0.90000;
	152	 1	 7.03	 1.258	 0.0	 0.0	 1	    0.97500	    0.00000	 69.0	 1	    1.05000	    0.90000;
	153	 1	 6.045	 1.082	 0.0	 0.0	 1	    0.97500	    0.00000	 69.0	 1	    1.05000	    0.90000;
	154	 1	 6.25	 0.634	 0.0	 0.0	 1	    0.97500	    0.00000	 69.0	 1	    1.05000	    0.90000;
	155	 1	 7.059	 1.014	 0.0	 0.0	 1	    0.97500	    0.00000	 69.0	 1	    1.05000	    0.90000;
	156	 1	 3.452	 0.351	 0.0	 0.0	 1	    0.97500	    0.00000	 69.0	 1	    1.05000	    0.90000;
	157	 1	 8.151	 1.18	 0.0	 0.0	 1	    0.97500	    0.00000	 69.0	 1	    1.05000	    0.90000;
	158	 1	 6.367	 0.917	 0.0	 0.0	 1	    0.97500	    0.00000	 69.0	 1	    1.05000	    0.90000;
	159	 1	 15.229	 2.194	 0.0	 0.0	 1	    0.97500	    0.00000	 69.0	 1	    1.05000	    0.90000;
	160	 1	 34.544	 6.172	 0.0	 0.0	 1	    0.97500	    0.00000	 69.0	 1	    1.05000	    0.90000;
	161	 1	 8.414	 1.501	 0.0	 0.0	 1	    0.97500	    0.00000	 69.0	 1	    1.05000	    0.90000;
	162	 1	 22.942	 2.321	 0.0	 0.0	 1	    0.97500	    0.00000	 69.0	 1	    1.05000	    0.90000;
	163	 1	 12.607	 2.252	 0.0	 0.0	 1	    0.97500	    0.00000	 69.0	 1	    1.05000	    0.90000;
	164	 1	 5.333	 0.955	 0.0	 0.0	 1	    0.97500	    0.00000	 69.0	 1	    1.05000	    0.90000;
	165	 1	 8.736	 1.56	 0.0	 0.0	 1	    0.97500	    0.00000	 69.0	 1	    1.05000	    0.90000;
	166	 1	 4.865	 0.488	 0.0	 0.0	 1	    0.97500	    0.00000	 69.0	 1	    1.05000	    0.90000;
	167	 1	 3.92	 0.702	 0.0	 0.0	 1	    0.97500	    0.00000	 69.0	 1	    1.05000	    0.90000;
	168	 1	 13.709	 1.385	 0.0	 0.0	 1	    0.97500	    0.00000	 69.0	 1	    1.05000	    0.90000;
	169	 1	 12.11	 1.745	 0.0	 0.0	 1	    0.97500	    0.00000	 69.0	 1	    1.05000	    0.90000;
	170	 1	 24.638	 2.486	 0.0	 0.0	 1	    0.97500	    0.00000	 69.0	 1	    1.05000	    0.90000;
	171	 1	 2.038	 0.292	 0.0	 0.0	 1	    0.97500	    0.00000	 69.0	 1	    1.05000	    0.90000;
	172	 1	 5.324	 0.536	 0.0	 0.0	 1	    0.97500	    0.00000	 69.0	 1	    1.05000	    0.90000;
	173	 1	 6.474	 0.653	 0.0	 0.0	 1	    0.97500	    0.00000	 69.0	 1	    1.05000	    0.90000;
	174	 1	 3.627	 0.526	 0.0	 0.0	 1	    0.97500	    0.00000	 69.0	 1	    1.05000	    0.90000;
	175	 1	 5.762	 0.585	 0.0	 0.0	 1	    0.97500	    0.00000	 69.0	 1	    1.05000	    0.90000;
	176	 1	 5.304	 0.77	 0.0	 0.0	 1	    0.97500	    0.00000	 69.0	 1	    1.05000	    0.90000;
	177	 1	 18.71	 2.701	 0.0	 0.0	 1	    0.97500	    0.00000	 69.0	 1	    1.05000	    0.90000;
	178	 1	 2.827	 0.283	 0.0	 0.0	 1	    0.97500	    0.00000	 69.0	 1	    1.05000	    0.90000;
	179	 1	 8.034	 1.433	 0.0	 0.0	 1	    0.97500	    0.00000	 69.0	 1	    1.05000	    0.90000;
	180	 1	 4.329	 0.624	 0.0	 0.0	 1	    0.97500	    0.00000	 69.0	 1	    1.05000	    0.90000;
	181	 1	 3.871	 0.556	 0.0	 0.0	 1	    0.97500	    0.00000	 69.0	 1	    1.05000	    0.90000;
	182	 1	 9.126	 1.316	 0.0	 0.0	 1	    0.97500	    0.00000	 69.0	 1	    1.05000	    0.90000;
	183	 1	 9.662	 1.394	 0.0	 0.0	 1	    0.97500	    0.00000	 69.0	 1	    1.05000	    0.90000;
	184	 1	 4.856	 0.868	 0.0	 0.0	 1	    0.97500	    0.00000	 69.0	 1	    1.05000	    0.90000;
	185	 1	 1.404	 0.146	 0.0	 0.0	 1	    0.97500	    0.00000	 69.0	 1	    1.05000	    0.90000;
	186	 1	 4.504	 0.653	 0.0	 0.0	 1	    0.97500	    0.00000	 69.0	 1	    1.05000	    0.90000;
	187	 1	 8.892	 1.589	 0.0	 0.0	 1	    0.97500	    0.00000	 69.0	 1	    1.05000	    0.90000;
	188	 1	 3.559	 0.361	 0.0	 0.0	 1	    0.97500	    0.00000	 69.0	 1	    1.05000	    0.90000;
	189	 1	 2.72	 0.39	 0.0	 0.0	 1	    0.97500	    0.00000	 69.0	 1	    1.05000	    0.90000;
	190	 1	 7.595	 1.355	 0.0	 0.0	 1	    0.97500	    0.00000	 69.0	 1	    1.05000	    0.90000;
	191	 1	 4.085	 0.41	 0.0	 0.0	 1	    0.97500	    0.00000	 69.0	 1	    1.05000	    0.90000;
	192	 1	 2.623	 0.263	 0.0	 0.0	 1	    0.97500	    0.00000	 69.0	 1	    1.05000	    0.90000;
	193	 1	 8.492	 0.858	 0.0	 0.0	 1	    0.97500	    0.00000	 69.0	 1	    1.05000	    0.90000;
	194	 1	 12.363	 1.248	 0.0	 0.0	 1	    0.97500	    0.00000	 69.0	 1	    1.05000	    0.90000;
	195	 1	 4.651	 0.829	 0.0	 0.0	 1	    0.97500	    0.00000	 69.0	 1	    1.05000	    0.90000;
	196	 1	 5.324	 0.77	 0.0	 0.0	 1	    0.97500	    0.00000	 69.0	 1	    1.05000	    0.90000;
	197	 1	 4.992	 0.887	 0.0	 0.0	 1	    0.97500	    0.00000	 69.0	 1	    1.05000	    0.90000;
	198	 1	 7.381	 1.316	 0.0	 0.0	 1	    0.97500	    0.00000	 69.0	 1	    1.05000	    0.90000;
	199	 1	 3.89	 0.565	 0.0	 0.0	 1	    0.97500	    0.00000	 69.0	 1	    1.05000	    0.90000;
	200	 1	 9.643	 1.726	 0.0	 0.0	 1	    0.97500	    0.00000	 69.0	 1	    1.05000	    0.90000;
...
];

%% generator data
%	bus	Pg	Qg	Qmax	Qmin	Vg	mBase	status	Pmax	Pmin
mpc.gen = [
	2	 280.0	 34.75	 222.8	 -153.3	 0.975	 100.0	 1	 460.0	 100.0;
	11	 38.5	 9.6	 41.5	 -22.3	 0.975	 100.0	 1	 67.0	 10.0;
	19	 36.1	 5.35	 23.1	 -12.4	 0.975	 100.0	 1	 37.2	 35.0;
	20	 18.65	 0.0	 0.0	 0.0	 0.975	 100.0	 1	 31.3	 6.0;
	21	 4.215	 0.85	 4.25	 -2.55	 0.975	 100.0	 1	 7.63	 0.8;
	21	 4.215	 0.85	 4.25	 -2.55	 0.975	 100.0	 1	 7.63	 0.8;
	21	 4.215	 0.85	 4.25	 -2.55	 0.975	 100.0	 1	 7.63	 0.8;
	21	 4.215	 0.85	 4.25	 -2.55	 0.975	 100.0	 1	 7.63	 0.8;
	24	 17.75	 0.0	 5.2	 -5.2	 0.975	 100.0	 1	 25.7	 9.8;
	25	 23.5	 5.0	 18.0	 -8.0	 0.975	 100.0	 1	 24.0	 23.0;
	26	 19.1	 3.35	 14.4	 -7.7	 0.975	 100.0	 1	 23.2	 15.0;
	26	 19.1	 3.35	 14.4	 -7.7	 0.975	 100.0	 1	 23.2	 15.0;
	26	 19.1	 3.35	 14.4	 -7.7	 0.975	 100.0	 1	 23.2	 15.0;
	27	 19.6	 3.1	 13.5	 -7.3	 0.975	 100.0	 1	 21.8	 17.4;
	29	 19.6	 3.1	 13.5	 -7.3	 0.975	 100.0	 1	 21.8	 17.4;
	30	 13.8	 3.95	 14.6	 -6.7	 0.975	 100.0	 1	 20.2	 7.4;
	31	 19.8	 2.85	 12.4	 -6.7	 0.975	 100.0	 1	 20.0	 19.6;
	31	 19.55	 2.85	 12.4	 -6.7	 0.975	 100.0	 1	 20.0	 19.1;
	31	 22.05	 3.6	 15.5	 -8.3	 0.975	 100.0	 1	 25.0	 19.1;
	31	 22.05	 3.6	 15.5	 -8.3	 0.975	 100.0	 1	 25.0	 19.1;
	31	 21.85	 3.6	 15.5	 -8.3	 0.975	 100.0	 1	 25.0	 18.7;
	50	 37.0	 5.2	 33.4	 -23.0	 0.975	 100.0	 1	 69.0	 5.0;
	53	 51.45	 8.3	 35.9	 -19.3	 0.975	 100.0	 1	 57.9	 45.0;
	53	 18.55	 3.9	 16.8	 -9.0	 0.975	 100.0	 1	 27.1	 10.0;
	55	 25.05	 3.5	 22.3	 -15.3	 0.975	 100.0	 1	 46.0	 4.1;
	57	 9.6	 2.035	 8.8	 -4.73	 0.975	 100.0	 1	 14.2	 5.0;
	57	 9.6	 2.035	 8.8	 -4.73	 0.975	 100.0	 1	 14.2	 5.0;
	57	 9.6	 2.035	 8.8	 -4.73	 0.975	 100.0	 1	 14.2	 5.0;
	62	 6.665	 2.3	 8.27	 -3.67	 0.975	 100.0	 1	 11.0	 2.33;
	62	 6.665	 2.3	 8.27	 -3.67	 0.975	 100.0	 1	 11.0	 2.33;
	62	 6.665	 2.3	 8.27	 -3.67	 0.975	 100.0	 1	 11.0	 2.33;
	63	 5.915	 2.265	 8.13	 -3.6	 0.975	 100.0	 1	 10.83	 1.0;
	63	 5.915	 2.265	 8.13	 -3.6	 0.975	 100.0	 1	 10.83	 1.0;
	63	 5.915	 2.265	 8.13	 -3.6	 0.975	 100.0	 1	 10.83	 1.0;
	65	 4.4	 0.975	 4.22	 -2.27	 0.975	 100.0	 1	 6.8	 2.0;
	65	 6.0	 1.575	 6.8	 -3.65	 0.975	 100.0	 1	 11.0	 1.0;
	65	 4.4	 0.975	 4.22	 -2.27	 0.975	 100.0	 1	 6.8	 2.0;
	65	 4.4	 0.975	 4.22	 -2.27	 0.975	 100.0	 1	 6.8	 2.0;
	65	 4.4	 0.975	 4.22	 -2.27	 0.975	 100.0	 1	 6.8	 2.0;
	65	 4.4	 0.975	 4.22	 -2.27	 0.975	 100.0	 1	 6.8	 2.0;
	65	 4.4	 0.975	 4.22	 -2.27	 0.975	 100.0	 1	 6.8	 2.0;
	65	 9.25	 1.8	 7.75	 -4.15	 0.975	 100.0	 1	 12.5	 6.0;
	65	 9.25	 1.8	 7.75	 -4.15	 0.975	 100.0	 1	 12.5	 6.0;
	65	 6.0	 1.575	 6.8	 -3.65	 0.975	 100.0	 1	 11.0	 1.0;
	66	 21.85	 5.15	 18.5	 -8.2	 0.975	 100.0	 1	 24.7	 19.0;
	68	 3.865	 0.0	 0.0	 0.0	 0.975	 100.0	 1	 7.63	 0.1;
	68	 3.865	 0.0	 0.0	 0.0	 0.975	 100.0	 1	 7.63	 0.1;
	68	 3.865	 0.0	 0.0	 0.0	 0.975	 100.0	 1	 7.63	 0.1;
	70	 17.6	 1.6	 10.3	 -7.1	 0.975	 100.0	 1	 21.2	 14.0;
	71	 18.05	 3.05	 13.1	 -7.0	 0.975	 100.0	 1	 21.1	 15.0;
	73	 6.425	 1.2	 5.75	 -3.35	 0.975	 100.0	 1	 10.0	 2.85;
	73	 6.425	 1.2	 5.75	 -3.35	 0.975	 100.0	 1	 10.0	 2.85;
	76	 132.2	 25.7	 111.2	 -59.8	 0.975	 100.0	 1	 179.4	 85.0;
	76	 70.05	 13.6	 58.9	 -31.7	 0.975	 100.0	 1	 95.1	 45.0;
	79	 53.8	 9.2	 52.6	 -34.2	 0.975	 100.0	 1	 102.6	 5.0;
	87	 5.795	 0.565	 3.6	 -2.47	 0.975	 100.0	 1	 7.42	 4.17;
	87	 5.795	 0.565	 3.6	 -2.47	 0.975	 100.0	 1	 7.42	 4.17;
	87	 5.795	 0.565	 3.6	 -2.47	 0.975	 100.0	 1	 7.42	 4.17;
	87	 5.795	 0.565	 3.6	 -2.47	 0.975	 100.0	 1	 7.42	 4.17;
	87	 5.795	 0.565	 3.6	 -2.47	 0.975	 100.0	 1	 7.42	 4.17;
	87	 5.795	 0.565	 3.6	 -2.47	 0.975	 100.0	 1	 7.42	 4.17;
	88	 21.0	 0.0	 16.6	 -16.6	 0.975	 100.0	 1	 42.0	 0.0;
	91	 26.25	 7.8	 28.1	 -12.5	 0.975	 100.0	 1	 37.5	 15.0;
	92	 9.75	 2.5	 10.85	 -5.85	 0.975	 100.0	 1	 17.5	 2.0;
	92	 9.75	 2.5	 10.85	 -5.85	 0.975	 100.0	 1	 17.5	 2.0;
	95	 8.125	 2.05	 8.85	 -4.75	 0.975	 100.0	 1	 14.25	 2.0;
	95	 8.125	 2.05	 8.85	 -4.75	 0.975	 100.0	 1	 14.25	 2.0;
	97	 16.75	 3.9	 17.0	 -9.2	 0.975	 100.0	 1	 27.5	 6.0;
	101	 15.15	 3.65	 15.7	 -8.4	 0.975	 100.0	 1	 25.3	 5.0;
	102	 17.0	 1.9	 12.1	 -8.3	 0.975	 100.0	 1	 25.0	 9.0;
	102	 17.0	 1.9	 12.1	 -8.3	 0.975	 100.0	 1	 25.0	 9.0;
	102	 19.0	 2.25	 14.5	 -10.0	 0.975	 100.0	 1	 30.0	 8.0;
	104	 14.0	 3.15	 13.6	 -7.3	 0.975	 100.0	 1	 22.0	 6.0;
	112	 20.0	 5.25	 18.8	 -8.3	 0.975	 100.0	 1	 25.0	 15.0;
	113	 12.0	 0.0	 9.5	 -9.5	 0.975	 100.0	 1	 24.0	 0.0;
	114	 11.0	 1.5	 9.7	 -6.7	 0.975	 100.0	 1	 20.0	 2.0;
	123	 37.25	 4.5	 28.8	 -19.8	 0.975	 100.0	 1	 59.5	 15.0;
	126	 7.4	 0.0	 5.6	 -5.6	 0.975	 100.0	 1	 11.87	 2.93;
	126	 7.4	 0.0	 5.6	 -5.6	 0.975	 100.0	 1	 11.87	 2.93;
	126	 7.4	 0.0	 5.6	 -5.6	 0.975	 100.0	 1	 11.87	 2.93;
	128	 9.6	 2.335	 8.4	 -3.73	 0.975	 100.0	 1	 11.2	 8.0;
	128	 9.6	 2.335	 8.4	 -3.73	 0.975	 100.0	 1	 11.2	 8.0;
	128	 9.6	 2.335	 8.4	 -3.73	 0.975	 100.0	 1	 11.2	 8.0;
	129	 15.25	 3.65	 15.8	 -8.5	 0.975	 100.0	 1	 25.5	 5.0;
	75435	 532.5	 0.0	 514.7	 -514.7	 0.975	 100.0	 1	 1000.0	 65.0;
	75435	 425.0	 68.7	 440.7	 -303.3	 0.975	 100.0	 1	 800.0	 50.0;
	75436	 265.0	 57.3	 247.9	 -133.3	 0.975	 100.0	 1	 400.0	 130.0;
	75436	 110.84	 23.35	 101.0	 -54.3	 0.975	 100.0	 1	 163.0	 58.68;
	75437	 224.5	 41.4	 179.1	 -96.3	 0.975	 100.0	 1	 289.0	 160.0;
	75437	 224.5	 41.4	 179.1	 -96.3	 0.975	 100.0	 1	 289.0	 160.0;
	75439	 212.5	 40.1	 173.5	 -93.3	 0.975	 100.0	 1	 280.0	 145.0;
	75439	 212.5	 40.1	 173.5	 -93.3	 0.975	 100.0	 1	 280.0	 145.0;
	75439	 212.5	 40.1	 173.5	 -93.3	 0.975	 100.0	 1	 280.0	 145.0;
	75441	 137.7	 25.8	 111.6	 -60.0	 0.975	 100.0	 1	 180.0	 95.4;
	75441	 130.05	 24.35	 105.4	 -56.7	 0.975	 100.0	 1	 170.0	 90.1;
	75441	 130.05	 24.35	 105.4	 -56.7	 0.975	 100.0	 1	 170.0	 90.1;
	75443	 169.7	 34.3	 148.4	 -79.8	 0.975	 100.0	 1	 239.4	 100.0;
	75443	 79.3	 16.25	 70.4	 -37.9	 0.975	 100.0	 1	 113.6	 45.0;
	75443	 269.95	 31.3	 200.9	 -138.3	 0.975	 100.0	 1	 414.9	 125.0;
	75444	 73.0	 20.0	 72.0	 -32.0	 0.975	 100.0	 1	 96.0	 50.0;
	75445	 62.0	 0.0	 27.6	 -27.6	 0.975	 100.0	 1	 84.0	 40.0;
	75448	 269.95	 31.3	 200.9	 -138.3	 0.975	 100.0	 1	 414.9	 125.0;
	75448	 57.5	 15.65	 56.3	 -25.0	 0.975	 100.0	 1	 75.0	 40.0;
	75450	 39.75	 8.65	 37.5	 -20.2	 0.975	 100.0	 1	 60.5	 19.0;
	75450	 39.75	 8.65	 37.5	 -20.2	 0.975	 100.0	 1	 60.5	 19.0;
	75450	 39.75	 8.65	 37.5	 -20.2	 0.975	 100.0	 1	 60.5	 19.0;
	75450	 39.75	 8.65	 37.5	 -20.2	 0.975	 100.0	 1	 60.5	 19.0;
	75452	 27.5	 5.75	 24.8	 -13.3	 0.975	 100.0	 1	 40.0	 15.0;
	75452	 36.0	 8.0	 34.7	 -18.7	 0.975	 100.0	 1	 56.0	 16.0;
	75453	 33.5	 7.3	 31.6	 -17.0	 0.975	 100.0	 1	 51.0	 16.0;
	75453	 33.5	 7.3	 31.6	 -17.0	 0.975	 100.0	 1	 51.0	 16.0;
	75453	 33.5	 7.3	 31.6	 -17.0	 0.975	 100.0	 1	 51.0	 16.0;
	75453	 33.5	 7.3	 31.6	 -17.0	 0.975	 100.0	 1	 51.0	 16.0;
	75454	 26.0	 7.15	 31.0	 -16.7	 0.975	 100.0	 1	 50.0	 2.0;
	75454	 26.0	 7.15	 31.0	 -16.7	 0.975	 100.0	 1	 50.0	 2.0;
	75454	 26.0	 7.15	 31.0	 -16.7	 0.975	 100.0	 1	 50.0	 2.0;
	75454	 26.0	 7.15	 31.0	 -16.7	 0.975	 100.0	 1	 50.0	 2.0;
	75454	 26.0	 7.15	 31.0	 -16.7	 0.975	 100.0	 1	 50.0	 2.0;
	75455	 33.5	 3.4	 21.8	 -15.0	 0.975	 100.0	 1	 45.0	 22.0;
	75455	 33.5	 9.4	 33.8	 -15.0	 0.975	 100.0	 1	 45.0	 22.0;
	75456	 34.55	 3.35	 21.4	 -14.7	 0.975	 100.0	 1	 44.1	 25.0;
	75456	 19.55	 2.55	 16.5	 -11.4	 0.975	 100.0	 1	 34.1	 5.0;
	75457	 25.9	 3.15	 20.2	 -13.9	 0.975	 100.0	 1	 41.8	 10.0;
	75457	 25.9	 3.15	 20.2	 -13.9	 0.975	 100.0	 1	 41.8	 10.0;
	75457	 25.9	 3.15	 20.2	 -13.9	 0.975	 100.0	 1	 41.8	 10.0;
	75457	 25.9	 8.75	 31.4	 -13.9	 0.975	 100.0	 1	 41.8	 10.0;
	75458	 4.05	 0.0	 3.55	 -3.55	 0.975	 100.0	 1	 7.5	 0.6;
	75458	 4.05	 0.0	 3.55	 -3.55	 0.975	 100.0	 1	 7.5	 0.6;
	75458	 4.05	 0.0	 3.55	 -3.55	 0.975	 100.0	 1	 7.5	 0.6;
	75458	 4.05	 0.0	 3.55	 -3.55	 0.975	 100.0	 1	 7.5	 0.6;
	75459	 18.9	 3.7	 16.0	 -8.6	 0.975	 100.0	 1	 25.8	 12.0;
	75460	 18.95	 3.1	 13.5	 -7.3	 0.975	 100.0	 1	 21.8	 16.1;
	75462	 375.0	 0.0	 190.6	 -190.6	 0.975	 100.0	 1	 580.0	 170.0;
	75462	 392.5	 0.0	 240.3	 -240.3	 0.975	 100.0	 1	 585.0	 200.0;
	75464	 70.0	 6.45	 41.2	 -28.3	 0.975	 100.0	 1	 85.0	 55.0;
	75464	 64.185	 6.725	 43.15	 -29.7	 0.975	 100.0	 1	 89.1	 39.27;
	75464	 64.185	 6.725	 43.15	 -29.7	 0.975	 100.0	 1	 89.1	 39.27;
	75464	 64.185	 6.725	 43.15	 -29.7	 0.975	 100.0	 1	 89.1	 39.27;
	75464	 62.5	 6.45	 41.2	 -28.3	 0.975	 100.0	 1	 85.0	 40.0;
	75464	 62.5	 6.45	 41.2	 -28.3	 0.975	 100.0	 1	 85.0	 40.0;
	75464	 62.5	 6.45	 41.2	 -28.3	 0.975	 100.0	 1	 85.0	 40.0;
	75464	 62.5	 6.45	 41.2	 -28.3	 0.975	 100.0	 1	 85.0	 40.0;
	75464	 62.5	 7.95	 50.9	 -35.0	 0.975	 100.0	 1	 105.0	 20.0;
	75464	 64.185	 6.725	 43.15	 -29.7	 0.975	 100.0	 1	 89.1	 39.27;
	75464	 64.185	 6.725	 43.15	 -29.7	 0.975	 100.0	 1	 89.1	 39.27;
	75464	 64.185	 6.725	 43.15	 -29.7	 0.975	 100.0	 1	 89.1	 39.27;
	75466	 172.5	 22.65	 145.3	 -100.0	 0.975	 100.0	 1	 300.0	 45.0;
	75466	 172.5	 22.65	 145.3	 -100.0	 0.975	 100.0	 1	 300.0	 45.0;
	75468	 222.0	 60.25	 216.8	 -96.3	 0.975	 100.0	 1	 289.0	 155.0;
	75469	 219.5	 41.4	 179.1	 -96.3	 0.975	 100.0	 1	 289.0	 150.0;
	75469	 219.5	 41.4	 179.1	 -96.3	 0.975	 100.0	 1	 289.0	 150.0;
	75471	 219.5	 41.4	 179.1	 -96.3	 0.975	 100.0	 1	 289.0	 150.0;
	75471	 219.5	 41.4	 179.1	 -96.3	 0.975	 100.0	 1	 289.0	 150.0;
	75474	 353.5	 46.55	 298.8	 -205.7	 0.975	 100.0	 1	 617.0	 90.0;
	75474	 209.3	 39.9	 172.7	 -92.9	 0.975	 100.0	 1	 278.6	 140.0;
	75474	 209.3	 39.9	 172.7	 -92.9	 0.975	 100.0	 1	 278.6	 140.0;
	75474	 209.3	 39.9	 172.7	 -92.9	 0.975	 100.0	 1	 278.6	 140.0;
	75474	 209.3	 39.9	 172.7	 -92.9	 0.975	 100.0	 1	 278.6	 140.0;
	75474	 195.0	 45.1	 195.2	 -105.0	 0.975	 100.0	 1	 315.0	 75.0;
	75474	 195.0	 45.1	 195.2	 -105.0	 0.975	 100.0	 1	 315.0	 75.0;
	75476	 209.3	 39.9	 172.7	 -92.9	 0.975	 100.0	 1	 278.6	 140.0;
	75476	 209.3	 39.9	 172.7	 -92.9	 0.975	 100.0	 1	 278.6	 140.0;
	75476	 195.0	 45.1	 195.2	 -105.0	 0.975	 100.0	 1	 315.0	 75.0;
	75478	 17.0	 2.85	 12.4	 -6.7	 0.975	 100.0	 1	 20.0	 14.0;
	75478	 20.6	 3.9	 16.9	 -9.1	 0.975	 100.0	 1	 27.2	 14.0;
	75478	 14.0	 4.8	 17.3	 -7.7	 0.975	 100.0	 1	 23.0	 5.0;
	75478	 61.265	 12.98	 54.13	 -28.17	 0.975	 100.0	 1	 84.53	 38.0;
	75478	 61.265	 12.98	 54.13	 -28.17	 0.975	 100.0	 1	 84.53	 38.0;
	75478	 61.265	 12.98	 54.13	 -28.17	 0.975	 100.0	 1	 84.53	 38.0;
	75478	 138.1	 26.65	 115.4	 -62.1	 0.975	 100.0	 1	 186.2	 90.0;
	75480	 262.75	 35.9	 230.3	 -158.5	 0.975	 100.0	 1	 475.5	 50.0;
	75480	 170.5	 18.2	 116.7	 -80.3	 0.975	 100.0	 1	 241.0	 100.0;
	75480	 170.5	 18.2	 116.7	 -80.3	 0.975	 100.0	 1	 241.0	 100.0;
	75480	 496.3	 0.0	 211.2	 -211.2	 0.975	 100.0	 1	 642.6	 350.0;
	75482	 157.5	 0.0	 77.2	 -77.2	 0.975	 100.0	 1	 235.0	 80.0;
	75482	 157.5	 0.0	 77.2	 -77.2	 0.975	 100.0	 1	 235.0	 80.0;
	75482	 157.5	 0.0	 77.2	 -77.2	 0.975	 100.0	 1	 235.0	 80.0;
	75482	 157.5	 0.0	 77.2	 -77.2	 0.975	 100.0	 1	 235.0	 80.0;
	75483	 172.5	 0.0	 75.6	 -75.6	 0.975	 100.0	 1	 230.0	 115.0;
	75483	 97.5	 0.0	 42.7	 -42.7	 0.975	 100.0	 1	 130.0	 65.0;
	75484	 154.0	 28.6	 123.9	 -66.7	 0.975	 100.0	 1	 200.0	 108.0;
	75485	 98.0	 19.5	 84.3	 -45.3	 0.975	 100.0	 1	 136.0	 60.0;
	75488	 40.55	 7.0	 30.4	 -16.4	 0.975	 100.0	 1	 49.1	 32.0;
	75488	 108.45	 18.45	 79.9	 -43.0	 0.975	 100.0	 1	 128.9	 88.0;
	75490	 106.85	 0.0	 32.3	 -32.3	 0.975	 100.0	 1	 128.7	 85.0;
	75490	 106.85	 0.0	 32.3	 -32.3	 0.975	 100.0	 1	 128.7	 85.0;
	75490	 79.35	 0.0	 32.3	 -32.3	 0.975	 100.0	 1	 128.7	 30.0;
	75492	 70.45	 11.55	 50.1	 -27.0	 0.975	 100.0	 1	 80.9	 60.0;
	75492	 77.0	 12.9	 55.8	 -30.0	 0.975	 100.0	 1	 90.0	 64.0;
	75492	 77.0	 12.9	 55.8	 -30.0	 0.975	 100.0	 1	 90.0	 64.0;
	75493	 43.0	 8.3	 35.9	 -19.3	 0.975	 100.0	 1	 58.0	 28.0;
	75493	 43.0	 8.3	 35.9	 -19.3	 0.975	 100.0	 1	 58.0	 28.0;
	75493	 16.5	 1.9	 12.1	 -8.3	 0.975	 100.0	 1	 25.0	 8.0;
	75493	 56.5	 5.75	 36.8	 -25.3	 0.975	 100.0	 1	 76.0	 37.0;
	75494	 9.15	 2.15	 7.73	 -3.43	 0.975	 100.0	 1	 10.3	 8.0;
	75494	 9.15	 2.15	 7.73	 -3.43	 0.975	 100.0	 1	 10.3	 8.0;
	75494	 9.15	 2.15	 7.73	 -3.43	 0.975	 100.0	 1	 10.3	 8.0;
	75494	 9.15	 2.15	 7.73	 -3.43	 0.975	 100.0	 1	 10.3	 8.0;
	75494	 9.15	 2.15	 7.73	 -3.43	 0.975	 100.0	 1	 10.3	 8.0;
	75494	 9.15	 2.15	 7.73	 -3.43	 0.975	 100.0	 1	 10.3	 8.0;
...
];

%% generator cost data
%	2	startup	shutdown	n	c(n-1)	...	c0
mpc.gencost = [
	2	 0.0	 0.0	 3	   0.010750	  66.800000	  -2.036000;
	2	 0.0	 0.0	 3	   0.054020	  38.320000	  -1.310000;
	2	 0.0	 0.0	 3	   0.000000	   0.004167	   0.000000;
	2	 0.0	 0.0	 3	   0.000000	  15.110000	 -12.320000;
	2	 0.0	 0.0	 3	   0.000000	  17.160000	   0.000000;
	2	 0.0	 0.0	 3	   0.000000	  13.530000	  -1.208000;
	2	 0.0	 0.0	 3	   0.000000	  16.970000	   0.000000;
	2	 0.0	 0.0	 3	   0.000000	  17.220000	   0.000000;
	2	 0.0	 0.0	 3	   0.000000	  14.980000	 -19.340000;
	2	 0.0	 0.0	 3	   0.000000	   0.008333	   0.000000;
	2	 0.0	 0.0	 3	   0.000000	  41.630000	  -4.691000;
	2	 0.0	 0.0	 3	   0.000000	  56.740000	  -3.423000;
	2	 0.0	 0.0	 3	   0.000000	  50.650000	  -3.841000;
	2	 0.0	 0.0	 3	   0.000000	   0.002174	   0.000000;
	2	 0.0	 0.0	 3	   0.000000	   0.002174	   0.000000;
	2	 0.0	 0.0	 3	   0.000000	  13.800000	 -12.470000;
	2	 0.0	 0.0	 3	   0.000000	   0.016670	   0.000000;
	2	 0.0	 0.0	 3	   0.000000	   0.009091	   0.000000;
	2	 0.0	 0.0	 3	   0.000000	  48.450000	  -5.295000;
	2	 0.0	 0.0	 3	   0.000000	  51.680000	  -4.958000;
	2	 0.0	 0.0	 3	   0.000000	  53.690000	  -4.691000;
	2	 0.0	 0.0	 3	   0.000000	  45.880000	 -14.790000;
	2	 0.0	 0.0	 3	   0.000000	  18.720000	 -163.100000;
	2	 0.0	 0.0	 3	   0.000000	  16.840000	 -18.150000;
	2	 0.0	 0.0	 3	   0.000000	  38.790000	 -35.920000;
	2	 0.0	 0.0	 3	   0.000000	  56.840000	  -1.015000;
	2	 0.0	 0.0	 3	   0.000000	  66.270000	   0.000000;
	2	 0.0	 0.0	 3	   0.000000	  69.570000	   0.000000;
	2	 0.0	 0.0	 3	   0.000000	  16.300000	  -2.633000;
	2	 0.0	 0.0	 3	   0.000000	  17.450000	  -2.442000;
	2	 0.0	 0.0	 3	   0.000000	  13.610000	  -3.236000;
	2	 0.0	 0.0	 3	   0.000000	  25.980000	  -1.343000;
	2	 0.0	 0.0	 3	   0.000000	  23.130000	  -1.516000;
	2	 0.0	 0.0	 3	   0.000000	  28.720000	  -1.210000;
	2	 0.0	 0.0	 3	   0.000000	   0.002000	   0.000000;
	2	 0.0	 0.0	 3	   0.000000	  27.990000	  -1.278000;
	2	 0.0	 0.0	 3	   0.000000	   0.002000	   0.000000;
	2	 0.0	 0.0	 3	   0.000000	   0.002000	   0.000000;
	2	 0.0	 0.0	 3	   0.000000	   0.002000	   0.000000;
	2	 0.0	 0.0	 3	   0.000000	   0.002000	   0.000000;
	2	 0.0	 0.0	 3	   0.000000	   0.002000	   0.000000;
	2	 0.0	 0.0	 3	   0.000000	  14.440000	  -2.647000;
	2	 0.0	 0.0	 3	   0.000000	  14.090000	  -2.717000;
	2	 0.0	 0.0	 3	   0.000000	  26.310000	  -1.363000;
	2	 0.0	 0.0	 3	   0.000000	  14.280000	 -15.550000;
	2	 0.0	 0.0	 3	   0.000000	  14.980000	   0.000000;
	2	 0.0	 0.0	 3	   0.000000	  16.330000	   0.000000;
	2	 0.0	 0.0	 3	   0.000000	  16.570000	   0.000000;
	2	 0.0	 0.0	 3	   0.000000	  12.230000	 -12.090000;
	2	 0.0	 0.0	 3	   0.000000	  53.310000	  -3.234000;
	2	 0.0	 0.0	 3	   0.000000	  23.670000	  -1.875000;
	2	 0.0	 0.0	 3	   0.000000	  22.300000	  -1.996000;
	2	 0.0	 0.0	 3	   0.031530	   9.089000	  -4.493000;
	2	 0.0	 0.0	 3	   0.000000	  22.740000	 -45.350000;
	2	 0.0	 0.0	 3	   0.041520	  41.170000	  -1.216000;
	2	 0.0	 0.0	 3	   0.000000	   0.002899	   0.000000;
	2	 0.0	 0.0	 3	   0.000000	   0.002899	   0.000000;
	2	 0.0	 0.0	 3	   0.000000	   0.002899	   0.000000;
	2	 0.0	 0.0	 3	   0.000000	   0.002899	   0.000000;
	2	 0.0	 0.0	 3	   0.000000	   0.002899	   0.000000;
	2	 0.0	 0.0	 3	   0.000000	   0.002899	   0.000000;
	2	 0.0	 0.0	 3	   0.000000	   0.000237	   0.000000;
	2	 0.0	 0.0	 3	   0.000000	  42.300000	 -31.330000;
	2	 0.0	 0.0	 3	   0.000000	  66.030000	   0.000000;
	2	 0.0	 0.0	 3	   0.000000	  67.750000	   0.000000;
	2	 0.0	 0.0	 3	   0.000000	  41.130000	  -2.809000;
	2	 0.0	 0.0	 3	   0.000000	  39.580000	  -2.923000;
	2	 0.0	 0.0	 3	   0.000000	  34.040000	 -15.460000;
	2	 0.0	 0.0	 3	   0.000000	  37.760000	 -13.690000;
	2	 0.0	 0.0	 3	   0.000000	  38.980000	 -14.020000;
	2	 0.0	 0.0	 3	   0.000000	  32.190000	 -17.360000;
	2	 0.0	 0.0	 3	   0.000000	  34.200000	 -20.170000;
	2	 0.0	 0.0	 3	   0.000000	  15.940000	  -6.474000;
	2	 0.0	 0.0	 3	   0.000000	  35.290000	 -21.790000;
	2	 0.0	 0.0	 3	   0.000000	   0.000413	   0.000000;
	2	 0.0	 0.0	 3	   0.000000	  33.930000	  -6.233000;
	2	 0.0	 0.0	 3	   0.000000	  35.110000	 -80.940000;
	2	 0.0	 0.0	 3	   0.000000	  13.530000	  -4.095000;
	2	 0.0	 0.0	 3	   0.000000	  17.730000	  -2.999000;
	2	 0.0	 0.0	 3	   0.000000	  16.210000	  -3.315000;
	2	 0.0	 0.0	 3	   0.000000	   0.002941	   0.000000;
	2	 0.0	 0.0	 3	   0.000000	   0.002941	   0.000000;
	2	 0.0	 0.0	 3	   0.000000	   0.002941	   0.000000;
	2	 0.0	 0.0	 3	   0.000000	  52.980000	  -2.280000;
	2	 0.0	 0.0	 3	   0.000900	   3.165000	   0.000000;
	2	 0.0	 0.0	 3	   0.001143	   2.528000	   0.000000;
	2	 0.0	 0.0	 3	   0.000000	   0.000000	   0.000000;
	2	 0.0	 0.0	 3	   0.052010	  90.400000	  -4.980000;
	2	 0.0	 0.0	 3	   0.031510	  10.880000	  -9.072000;
	2	 0.0	 0.0	 3	   0.026770	  12.780000	  -7.706000;
	2	 0.0	 0.0	 3	   0.032340	  10.600000	  -8.094000;
	2	 0.0	 0.0	 3	   0.030690	  11.160000	  -7.681000;
	2	 0.0	 0.0	 3	   0.028080	  12.190000	  -7.028000;
	2	 0.0	 0.0	 3	   0.033710	   8.511000	  -5.684000;
	2	 0.0	 0.0	 3	   0.036440	   7.882000	  -5.812000;
	2	 0.0	 0.0	 3	   0.032270	   8.881000	  -5.147000;
	2	 0.0	 0.0	 3	   0.011900	  19.180000	  -1.930000;
	2	 0.0	 0.0	 3	   0.000000	  21.580000	 -77.490000;
	2	 0.0	 0.0	 3	   0.010160	  70.660000	  -2.116000;
	2	 0.0	 0.0	 3	   0.000000	  19.640000	 -52.190000;
	2	 0.0	 0.0	 3	   0.000000	  17.850000	 -41.610000;
	2	 0.0	 0.0	 3	   0.009623	  74.560000	  -2.005000;
	2	 0.0	 0.0	 3	   0.000000	  83.600000	 -216.300000;
	2	 0.0	 0.0	 3	   0.000000	  55.150000	 -15.400000;
	2	 0.0	 0.0	 3	   0.000000	  45.930000	 -18.620000;
	2	 0.0	 0.0	 3	   0.000000	  50.470000	 -16.880000;
	2	 0.0	 0.0	 3	   0.000000	  50.290000	 -16.940000;
	2	 0.0	 0.0	 3	   0.000000	  15.740000	 -48.810000;
	2	 0.0	 0.0	 3	   0.000000	  17.150000	 -80.440000;
	2	 0.0	 0.0	 3	   0.000000	  48.740000	 -12.390000;
	2	 0.0	 0.0	 3	   0.000000	  47.320000	 -12.780000;
	2	 0.0	 0.0	 3	   0.000000	  53.130000	 -11.340000;
	2	 0.0	 0.0	 3	   0.000000	  52.240000	 -11.540000;
	2	 0.0	 0.0	 3	   0.000000	  16.830000	 -16.850000;
	2	 0.0	 0.0	 3	   0.000000	  16.640000	 -17.090000;
	2	 0.0	 0.0	 3	   0.000000	  15.820000	 -18.210000;
	2	 0.0	 0.0	 3	   0.000000	  15.280000	 -19.050000;
	2	 0.0	 0.0	 3	   0.000000	  14.350000	 -20.700000;
	2	 0.0	 0.0	 3	   0.000000	  37.010000	 -76.260000;
	2	 0.0	 0.0	 3	   0.000000	  33.220000	 -88.620000;
	2	 0.0	 0.0	 3	   0.000000	  20.660000	 -53.040000;
	2	 0.0	 0.0	 3	   0.000000	  17.610000	 -18.340000;
	2	 0.0	 0.0	 3	   0.000000	  48.400000	  -7.335000;
	2	 0.0	 0.0	 3	   0.000000	  58.280000	  -6.068000;
	2	 0.0	 0.0	 3	   0.000000	  46.980000	  -7.562000;
	2	 0.0	 0.0	 3	   0.000000	  47.820000	  -7.427000;
	2	 0.0	 0.0	 3	   0.000000	  27.220000	   0.000000;
	2	 0.0	 0.0	 3	   0.000000	  20.760000	   0.000000;
	2	 0.0	 0.0	 3	   0.000000	  22.850000	   0.000000;
	2	 0.0	 0.0	 3	   0.000000	  21.010000	   0.000000;
	2	 0.0	 0.0	 3	   0.000000	  14.800000	 -11.260000;
	2	 0.0	 0.0	 3	   0.000000	  57.120000	  -3.315000;
	2	 0.0	 0.0	 3	   0.008596	  83.520000	  -2.449000;
	2	 0.0	 0.0	 3	   0.010190	  70.460000	  -3.296000;
	2	 0.0	 0.0	 3	   0.000000	  15.240000	 -49.530000;
	2	 0.0	 0.0	 3	   0.000000	  29.720000	 -86.940000;
	2	 0.0	 0.0	 3	   0.000000	  28.000000	 -93.640000;
	2	 0.0	 0.0	 3	   0.000000	  33.380000	 -75.700000;
	2	 0.0	 0.0	 3	   0.000000	  13.170000	 -47.370000;
	2	 0.0	 0.0	 3	   0.000000	  13.490000	 -45.900000;
	2	 0.0	 0.0	 3	   0.000000	  16.920000	 -34.920000;
	2	 0.0	 0.0	 3	   0.000000	  16.770000	 -35.290000;
	2	 0.0	 0.0	 3	   0.000000	  12.630000	 -48.640000;
	2	 0.0	 0.0	 3	   0.000000	  34.470000	 -72.930000;
	2	 0.0	 0.0	 3	   0.000000	  32.650000	 -77.670000;
	2	 0.0	 0.0	 3	   0.000000	  33.170000	 -76.260000;
	2	 0.0	 0.0	 3	   0.378400	  17.650000	 -40.230000;
	2	 0.0	 0.0	 3	   0.502100	  13.530000	 -53.380000;
	2	 0.0	 0.0	 3	   0.025910	  13.200000	  -7.071000;
	2	 0.0	 0.0	 3	   0.027200	  12.580000	  -7.048000;
	2	 0.0	 0.0	 3	   0.030130	  11.360000	  -7.808000;
	2	 0.0	 0.0	 3	   0.027000	  12.670000	  -6.994000;
	2	 0.0	 0.0	 3	   0.026360	  12.980000	  -6.829000;
	2	 0.0	 0.0	 3	   0.010970	  65.470000	  -2.367000;
	2	 0.0	 0.0	 3	   0.027760	  12.320000	  -6.610000;
	2	 0.0	 0.0	 3	   0.036420	   9.424000	  -8.672000;
	2	 0.0	 0.0	 3	   0.030980	  11.060000	  -7.376000;
	2	 0.0	 0.0	 3	   0.032990	  10.390000	  -7.856000;
	2	 0.0	 0.0	 3	   0.027160	  12.590000	  -3.709000;
	2	 0.0	 0.0	 3	   0.025430	  13.440000	  -3.473000;
	2	 0.0	 0.0	 3	   0.036980	   9.284000	  -8.805000;
	2	 0.0	 0.0	 3	   0.036770	   9.336000	  -8.756000;
	2	 0.0	 0.0	 3	   0.025580	  13.370000	  -3.492000;
	2	 0.0	 0.0	 3	   0.000000	  60.490000	  -2.527000;
	2	 0.0	 0.0	 3	   0.000000	  15.820000	 -24.820000;
	2	 0.0	 0.0	 3	   0.000000	  17.290000	  -9.457000;
	2	 0.0	 0.0	 3	   0.000000	  15.540000	 -115.000000;
	2	 0.0	 0.0	 3	   0.000000	  14.410000	 -136.000000;
	2	 0.0	 0.0	 3	   0.000000	  16.400000	 -104.400000;
	2	 0.0	 0.0	 3	   0.000000	  20.760000	 -213.800000;
	2	 0.0	 0.0	 3	   0.008594	  83.540000	  -1.306000;
	2	 0.0	 0.0	 3	   0.000000	   0.000000	   0.000000;
	2	 0.0	 0.0	 3	   0.000000	   0.000000	   0.000000;
	2	 0.0	 0.0	 3	   0.022550	  12.430000	 -13.890000;
	2	 0.0	 0.0	 3	   0.489300	  14.040000	 -63.930000;
	2	 0.0	 0.0	 3	   0.520600	  13.290000	 -68.020000;
	2	 0.0	 0.0	 3	   0.461900	  14.790000	 -60.350000;
	2	 0.0	 0.0	 3	   0.395800	  17.050000	 -51.710000;
	2	 0.0	 0.0	 3	   0.000000	  20.970000	 -347.600000;
	2	 0.0	 0.0	 3	   0.000000	  19.940000	 -106.000000;
	2	 0.0	 0.0	 3	   0.000000	  21.780000	 -253.400000;
	2	 0.0	 0.0	 3	   0.000000	  15.140000	 -113.500000;
	2	 0.0	 0.0	 3	   0.000000	  19.340000	 -83.800000;
	2	 0.0	 0.0	 3	   0.000000	  18.550000	 -144.500000;
	2	 0.0	 0.0	 3	   0.000000	  23.990000	 -101.200000;
	2	 0.0	 0.0	 3	   0.000000	  22.340000	 -110.200000;
	2	 0.0	 0.0	 3	   0.000000	  22.760000	 -57.440000;
	2	 0.0	 0.0	 3	   0.000000	  23.020000	 -44.300000;
	2	 0.0	 0.0	 3	   0.000000	  23.450000	 -52.320000;
	2	 0.0	 0.0	 3	   0.000000	  17.730000	 -72.910000;
	2	 0.0	 0.0	 3	   0.000000	  18.000000	 -50.690000;
	2	 0.0	 0.0	 3	   0.000000	  15.940000	 -60.320000;
	2	 0.0	 0.0	 3	   0.000000	  17.830000	 -13.110000;
	2	 0.0	 0.0	 3	   0.000000	  20.890000	 -32.020000;
	2	 0.0	 0.0	 3	   0.000000	   0.004000	   0.000000;
	2	 0.0	 0.0	 3	   0.000000	   0.004000	   0.000000;
	2	 0.0	 0.0	 3	   0.000000	   0.004000	   0.000000;
	2	 0.0	 0.0	 3	   0.000000	   0.004000	   0.000000;
	2	 0.0	 0.0	 3	   0.000000	   0.004000	   0.000000;
	2	 0.0	 0.0	 3	   0.000000	   0.004000	   0.000000;
...
];

%% branch data
%	fbus	tbus	r	x	b	rateA	rateB	rateC	ratio	angle	status	angmin	angmax
mpc.branch = [
	1	 650	 0.0440029	 0.231829	 0.00416148	 96.0	 96.0	 129.0	 0.0	 0.0	 1	 -30.0	 30.0;
	1	 903	 0.0065188	 0.0661654	 0.00134025	 154.0	 154.0	 199.0	 0.0	 0.0	 1	 -30.0	 30.0;
	1	 905	 0.00333213	 0.0364493	 0.000759498	 162.0	 162.0	 199.0	 0.0	 0.0	 1	 -30.0	 30.0;
	2	 683	 0.00217379	 0.00836299	 0.00228418	 159.0	 159.0	 159.0	 0.0	 0.0	 1	 -30.0	 30.0;
	2	 75692	 0.000794052	 0.00603894	 0.00189761	 253.0	 259.0	 259.0	 0.0	 0.0	 1	 -30.0	 30.0;
	2	 75693	 0.00171474	 0.00963476	 0.00285464	 207.0	 211.0	 211.0	 0.0	 0.0	 1	 -30.0	 30.0;
	2	 75696	 0.000335965	 0.00356044	 0.00105683	 307.0	 307.0	 307.0	 0.0	 0.0	 1	 -30.0	 30.0;
	3	 6	 0.000176282	 0.00201502	 3.8408e-05	 162.0	 162.0	 199.0	 0.0	 0.0	 1	 -30.0	 30.0;
	3	 236	 0.000999816	 0.0101479	 0.000205553	 154.0	 154.0	 199.0	 0.0	 0.0	 1	 -30.0	 30.0;
	4	 12	 0.00416723	 0.0203445	 0.000426326	 96.0	 96.0	 129.0	 0.0	 0.0	 1	 -30.0	 30.0;
	4	 276	 0.0224763	 0.0550162	 0.000940668	 59.0	 59.0	 99.0	 0.0	 0.0	 1	 -30.0	 30.0;
	4	 279	 0.0107478	 0.0284044	 0.000415527	 59.0	 59.0	 99.0	 0.0	 0.0	 1	 -30.0	 30.0;
	4	 280	 0.00392264	 0.0429089	 0.000894099	 162.0	 162.0	 199.0	 0.0	 0.0	 1	 -30.0	 30.0;
	5	 952	 0.00413977	 0.0227157	 0.00600443	 193.0	 193.0	 193.0	 0.0	 0.0	 1	 -30.0	 30.0;
	5	 75764	 0.0101647	 0.0258509	 0.00654076	 118.0	 118.0	 118.0	 0.0	 0.0	 1	 -30.0	 30.0;
	5	 75765	 0.00107397	 0.0129703	 0.00735527	 523.0	 523.0	 523.0	 0.0	 0.0	 1	 -30.0	 30.0;
	6	 235	 0.00630091	 0.0166521	 0.000243603	 59.0	 59.0	 99.0	 0.0	 0.0	 1	 -30.0	 30.0;
	6	 236	 0.00134834	 0.00934307	 0.000192108	 119.0	 119.0	 149.0	 0.0	 0.0	 1	 -30.0	 30.0;
	6	 237	 0.00099799	 0.0100539	 0.000247701	 162.0	 162.0	 199.0	 0.0	 0.0	 1	 -30.0	 30.0;
	6	 268	 0.00525814	 0.0231672	 0.00040241	 88.0	 88.0	 129.0	 0.0	 0.0	 1	 -30.0	 30.0;
	7	 623	 0.0164766	 0.0763537	 0.00146439	 92.0	 92.0	 129.0	 0.0	 0.0	 1	 -30.0	 30.0;
	7	 625	 0.0190739	 0.0763651	 0.00120242	 80.0	 80.0	 129.0	 0.0	 0.0	 1	 -30.0	 30.0;
	7	 630	 0.0259444	 0.0685671	 0.00100308	 59.0	 59.0	 99.0	 0.0	 0.0	 1	 -30.0	 30.0;
	7	 631	 0.0259797	 0.0737234	 0.00115837	 64.0	 64.0	 119.0	 0.0	 0.0	 1	 -30.0	 30.0;
	8	 812	 0.0016434	 0.0104086	 0.000176556	 110.0	 110.0	 139.0	 0.0	 0.0	 1	 -30.0	 30.0;
	8	 821	 0.00505125	 0.0133495	 0.00019529	 59.0	 59.0	 99.0	 0.0	 0.0	 1	 -30.0	 30.0;
	8	 822	 0.0103604	 0.0266324	 0.000412168	 59.0	 59.0	 99.0	 0.0	 0.0	 1	 -30.0	 30.0;
	8	 825	 0.0132758	 0.0478046	 0.000648196	 71.0	 71.0	 119.0	 0.0	 0.0	 1	 -30.0	 30.0;
	9	 733	 0.0267622	 0.068061	 0.00107627	 59.0	 59.0	 99.0	 0.0	 0.0	 1	 -30.0	 30.0;
	9	 753	 0.00613338	 0.015598	 0.000246653	 59.0	 59.0	 99.0	 0.0	 0.0	 1	 -30.0	 30.0;
	9	 754	 0.00187384	 0.0204974	 0.000427105	 162.0	 162.0	 199.0	 0.0	 0.0	 1	 -30.0	 30.0;
	9	 761	 0.0289722	 0.0736814	 0.00116515	 59.0	 59.0	 99.0	 0.0	 0.0	 1	 -30.0	 30.0;
	10	 857	 0.0494122	 0.120953	 0.00206815	 59.0	 59.0	 99.0	 0.0	 0.0	 1	 -30.0	 30.0;
	10	 900	 0.0262592	 0.0845586	 0.00144043	 71.0	 71.0	 119.0	 0.0	 0.0	 1	 -30.0	 30.0;
	10	 902	 0.0107217	 0.0283354	 0.000414519	 59.0	 59.0	 99.0	 0.0	 0.0	 1	 -30.0	 30.0;
	10	 903	 0.0503083	 0.167837	 0.00266057	 71.0	 71.0	 119.0	 0.0	 0.0	 1	 -30.0	 30.0;
	11	 217	 0.0307067	 0.0811536	 0.00118722	 59.0	 59.0	 99.0	 0.0	 0.0	 1	 -30.0	 30.0;
	11	 232	 0.00430046	 0.0261353	 0.000482141	 114.0	 124.0	 149.0	 0.0	 0.0	 1	 -30.0	 30.0;
	11	 233	 0.0023338	 0.014348	 0.000258606	 113.0	 124.0	 149.0	 0.0	 0.0	 1	 -30.0	 30.0;
	11	 234	 0.00051065	 0.00268991	 4.82743e-05	 112.0	 129.0	 139.0	 0.0	 0.0	 1	 -30.0	 30.0;
	11	 236	 0.00157611	 0.018016	 0.0003434	 162.0	 162.0	 199.0	 0.0	 0.0	 1	 -30.0	 30.0;
	12	 691	 0.0231131	 0.0536516	 0.00102157	 59.0	 59.0	 99.0	 0.0	 0.0	 1	 -30.0	 30.0;
	12	 696	 0.0122117	 0.0298908	 0.000511069	 59.0	 59.0	 99.0	 0.0	 0.0	 1	 -30.0	 30.0;
	13	 430	 0.000421012	 0.00481244	 9.17291e-05	 162.0	 162.0	 199.0	 0.0	 0.0	 1	 -30.0	 30.0;
	13	 432	 0.0101208	 0.0389365	 0.00066467	 80.0	 80.0	 129.0	 0.0	 0.0	 1	 -30.0	 30.0;
	14	 273	 0.0201074	 0.0531404	 0.000777397	 59.0	 59.0	 99.0	 0.0	 0.0	 1	 -30.0	 30.0;
	14	 274	 0.0121377	 0.0308679	 0.000488117	 60.0	 63.0	 119.0	 0.0	 0.0	 1	 -30.0	 30.0;
	14	 275	 0.00477114	 0.0101862	 0.000229945	 59.0	 59.0	 99.0	 0.0	 0.0	 1	 -30.0	 30.0;
	14	 693	 0.0101168	 0.0257285	 0.000406848	 59.0	 59.0	 99.0	 0.0	 0.0	 1	 -30.0	 30.0;
	15	 730	 0.0132214	 0.0795486	 0.00108951	 96.0	 96.0	 129.0	 0.0	 0.0	 1	 -30.0	 30.0;
	15	 753	 0.00623368	 0.0141399	 0.00028208	 59.0	 59.0	 99.0	 0.0	 0.0	 1	 -30.0	 30.0;
	15	 756	 0.0106271	 0.0270262	 0.000427367	 59.0	 59.0	 99.0	 0.0	 0.0	 1	 -30.0	 30.0;
	16	 503	 0.00720124	 0.0183138	 0.000289597	 59.0	 59.0	 99.0	 0.0	 0.0	 1	 -30.0	 30.0;
	16	 523	 0.0101214	 0.0267489	 0.000391309	 59.0	 59.0	 99.0	 0.0	 0.0	 1	 -30.0	 30.0;
	17	 507	 0.00175376	 0.00923813	 0.000165791	 96.0	 96.0	 129.0	 0.0	 0.0	 1	 -30.0	 30.0;
	17	 508	 0.0034377	 0.00779775	 0.000155559	 59.0	 59.0	 99.0	 0.0	 0.0	 1	 -30.0	 30.0;
	17	 509	 0.00367076	 0.00970113	 0.000141917	 59.0	 59.0	 99.0	 0.0	 0.0	 1	 -30.0	 30.0;
	18	 500	 0.00647188	 0.0319721	 0.000583602	 95.0	 95.0	 129.0	 0.0	 0.0	 1	 -30.0	 30.0;
	18	 527	 0.011044	 0.0291872	 0.000426979	 59.0	 59.0	 99.0	 0.0	 0.0	 1	 -30.0	 30.0;
	18	 529	 0.0124499	 0.0304738	 0.000521038	 59.0	 59.0	 99.0	 0.0	 0.0	 1	 -30.0	 30.0;
	19	 326	 0.0109915	 0.0279529	 0.000442021	 59.0	 59.0	 99.0	 0.0	 0.0	 1	 -30.0	 30.0;
	19	 803	 0.00395048	 0.0432134	 0.000900445	 162.0	 162.0	 199.0	 0.0	 0.0	 1	 -30.0	 30.0;
	19	 807	 0.0238644	 0.0955458	 0.00150445	 80.0	 80.0	 129.0	 0.0	 0.0	 1	 -30.0	 30.0;
	20	 960	 0.000729057	 0.0038404	 0.00110274	 193.0	 193.0	 193.0	 0.0	 0.0	 1	 -30.0	 30.0;
	20	 75769	 0.00559295	 0.0142238	 0.00359878	 118.0	 118.0	 118.0	 0.0	 0.0	 1	 -30.0	 30.0;
	21	 290	 0.0168789	 0.0535948	 0.000939692	 71.0	 71.0	 119.0	 0.0	 0.0	 1	 -30.0	 30.0;
	21	 331	 0.0368433	 0.0937001	 0.00148173	 59.0	 59.0	 99.0	 0.0	 0.0	 1	 -30.0	 30.0;
	21	 799	 0.018276	 0.087106	 0.00157704	 92.0	 92.0	 129.0	 0.0	 0.0	 1	 -30.0	 30.0;
	22	 849	 0.0141624	 0.0410017	 0.000498383	 59.0	 59.0	 99.0	 0.0	 0.0	 1	 -30.0	 30.0;
	22	 873	 0.00609955	 0.015512	 0.000245292	 59.0	 59.0	 99.0	 0.0	 0.0	 1	 -30.0	 30.0;
	23	 527	 0.00566831	 0.0140689	 0.000233788	 59.0	 59.0	 99.0	 0.0	 0.0	 1	 -30.0	 30.0;
	24	 925	 0.00567925	 0.0311637	 0.00823773	 193.0	 193.0	 193.0	 0.0	 0.0	 1	 -30.0	 30.0;
	24	 930	 0.000221188	 0.00116513	 0.00033456	 193.0	 193.0	 193.0	 0.0	 0.0	 1	 -30.0	 30.0;
	24	 75757	 0.00219849	 0.00835656	 0.00233921	 159.0	 159.0	 159.0	 0.0	 0.0	 1	 -30.0	 30.0;
	25	 567	 0.00764409	 0.0384055	 0.000624651	 92.0	 92.0	 129.0	 0.0	 0.0	 1	 -30.0	 30.0;
	25	 572	 0.0100663	 0.0255999	 0.000404814	 59.0	 59.0	 99.0	 0.0	 0.0	 1	 -30.0	 30.0;
	26	 143	 0.00984479	 0.026018	 0.000380616	 59.0	 59.0	 99.0	 0.0	 0.0	 1	 -30.0	 30.0;
	26	 144	 0.0134981	 0.0343276	 0.000542826	 59.0	 59.0	 99.0	 0.0	 0.0	 1	 -30.0	 30.0;
	26	 160	 0.00935526	 0.0237918	 0.000376221	 59.0	 75.0	 99.0	 0.0	 0.0	 1	 -30.0	 30.0;
	26	 170	 0.00215911	 0.00542742	 8.78778e-05	 59.0	 75.0	 99.0	 0.0	 0.0	 1	 -30.0	 30.0;
	27	 773	 0.00139402	 0.0150464	 0.000322157	 162.0	 162.0	 199.0	 0.0	 0.0	 1	 -30.0	 30.0;
	27	 775	 0.00814422	 0.0215237	 0.000314869	 59.0	 59.0	 99.0	 0.0	 0.0	 1	 -30.0	 30.0;
	28	 592	 0.00876388	 0.0231613	 0.000338826	 59.0	 59.0	 99.0	 0.0	 0.0	 1	 -30.0	 30.0;
	28	 593	 0.00105	 0.00301152	 4.63124e-05	 64.0	 64.0	 119.0	 0.0	 0.0	 1	 -30.0	 30.0;
	28	 599	 0.00928835	 0.0236216	 0.00037353	 59.0	 59.0	 99.0	 0.0	 0.0	 1	 -30.0	 30.0;
	29	 588	 0.0346637	 0.0871372	 0.00141092	 59.0	 59.0	 99.0	 0.0	 0.0	 1	 -30.0	 30.0;
	29	 599	 0.00643093	 0.0145873	 0.000291005	 59.0	 59.0	 99.0	 0.0	 0.0	 1	 -30.0	 30.0;
	29	 600	 0.00331144	 0.0357423	 0.000765279	 162.0	 162.0	 199.0	 0.0	 0.0	 1	 -30.0	 30.0;
	30	 569	 0.00729326	 0.0192747	 0.000281969	 59.0	 59.0	 99.0	 0.0	 0.0	 1	 -30.0	 30.0;
	30	 572	 0.00540154	 0.0247796	 0.000396732	 88.0	 88.0	 129.0	 0.0	 0.0	 1	 -30.0	 30.0;
	31	 132	 0.0518868	 0.137134	 0.00200626	 59.0	 59.0	 99.0	 0.0	 0.0	 1	 -30.0	 30.0;
	31	 136	 0.00424129	 0.0469692	 0.000954827	 162.0	 162.0	 199.0	 0.0	 0.0	 1	 -30.0	 30.0;
	31	 139	 0.00260956	 0.0256875	 0.000663464	 162.0	 162.0	 199.0	 0.0	 0.0	 1	 -30.0	 30.0;
	31	 140	 0.00755855	 0.0190001	 0.00030764	 59.0	 59.0	 99.0	 0.0	 0.0	 1	 -30.0	 30.0;
	31	 141	 0.00603836	 0.0153564	 0.000242831	 59.0	 63.0	 99.0	 0.0	 0.0	 1	 -30.0	 30.0;
	31	 143	 0.0149035	 0.0393873	 0.000576198	 59.0	 59.0	 99.0	 0.0	 0.0	 1	 -30.0	 30.0;
	31	 144	 0.00722879	 0.0191044	 0.000279477	 59.0	 59.0	 99.0	 0.0	 0.0	 1	 -30.0	 30.0;
	32	 1347	 0.00105916	 0.0115858	 0.000241413	 162.0	 162.0	 199.0	 0.0	 0.0	 1	 -30.0	 30.0;
	32	 1348	 0.008503	 0.087359	 0.001727	 100.0	 100.0	 139.0	 0.0	 0.0	 1	 -30.0	 30.0;
	32	 1348	 0.008503	 0.087359	 0.001727	 100.0	 100.0	 139.0	 0.0	 0.0	 1	 -30.0	 30.0;
	33	 1718	 0.0420333	 0.0975728	 0.00185792	 59.0	 59.0	 99.0	 0.0	 0.0	 1	 -30.0	 30.0;
	33	 1756	 0.019862	 0.0655454	 0.00106184	 71.0	 71.0	 119.0	 0.0	 0.0	 1	 -30.0	 30.0;
	33	 1758	 0.00645459	 0.0324521	 0.000881984	 110.0	 110.0	 139.0	 0.0	 0.0	 1	 -30.0	 30.0;
	33	 1759	 0.0145912	 0.0642892	 0.00111671	 88.0	 88.0	 129.0	 0.0	 0.0	 1	 -30.0	 30.0;
	33	 1760	 0.0191856	 0.0835049	 0.00148692	 88.0	 88.0	 129.0	 0.0	 0.0	 1	 -30.0	 30.0;
	33	 1813	 0.0237638	 0.114661	 0.00202471	 92.0	 92.0	 129.0	 0.0	 0.0	 1	 -30.0	 30.0;
	34	 1395	 0.042407	 0.106603	 0.00172614	 59.0	 59.0	 99.0	 0.0	 0.0	 1	 -30.0	 30.0;
	34	 1406	 0.0739039	 0.195335	 0.0028579	 59.0	 59.0	 99.0	 0.0	 0.0	 1	 -30.0	 30.0;
	34	 3338	 0.0684989	 0.38506	 0.00713523	 103.0	 103.0	 139.0	 0.0	 0.0	 1	 -30.0	 30.0;
	34	 3476	 0.0984492	 0.317114	 0.00540396	 71.0	 71.0	 119.0	 0.0	 0.0	 1	 -30.0	 30.0;
	35	 434	 0.0442139	 0.116853	 0.00170952	 59.0	 59.0	 99.0	 0.0	 0.0	 1	 -30.0	 30.0;
	35	 438	 0.0335643	 0.0862819	 0.00133535	 59.0	 59.0	 99.0	 0.0	 0.0	 1	 -30.0	 30.0;
	35	 1803	 0.0179539	 0.0592485	 0.000959824	 71.0	 71.0	 119.0	 0.0	 0.0	 1	 -30.0	 30.0;
	36	 2209	 0.0117606	 0.0714741	 0.00131857	 110.0	 110.0	 139.0	 0.0	 0.0	 1	 -30.0	 30.0;
	36	 2219	 0.0407126	 0.204572	 0.00332782	 92.0	 92.0	 129.0	 0.0	 0.0	 1	 -30.0	 30.0;
	36	 2292	 0.0179014	 0.0444319	 0.000738347	 59.0	 59.0	 99.0	 0.0	 0.0	 1	 -30.0	 30.0;
	37	 2292	 0.0130048	 0.0905992	 0.00212879	 125.0	 125.0	 149.0	 0.0	 0.0	 1	 -30.0	 30.0;
	37	 2746	 0.0250877	 0.125479	 0.00223379	 95.0	 95.0	 129.0	 0.0	 0.0	 1	 -30.0	 30.0;
	37	 2750	 0.0191427	 0.0492085	 0.000761564	 59.0	 59.0	 99.0	 0.0	 0.0	 1	 -30.0	 30.0;
	38	 1985	 0.00220126	 0.024079	 0.000501734	 162.0	 162.0	 199.0	 0.0	 0.0	 1	 -30.0	 30.0;
	38	 2007	 0.00261916	 0.0290051	 0.000589635	 162.0	 162.0	 199.0	 0.0	 0.0	 1	 -30.0	 30.0;
	38	 2024	 0.00162095	 0.0169677	 0.000386828	 162.0	 162.0	 199.0	 0.0	 0.0	 1	 -30.0	 30.0;
	38	 2446	 0.00908622	 0.0498569	 0.000823647	 96.0	 96.0	 129.0	 0.0	 0.0	 1	 -30.0	 30.0;
	38	 2462	 0.00703141	 0.0445345	 0.000755421	 110.0	 110.0	 139.0	 0.0	 0.0	 1	 -30.0	 30.0;
	38	 2576	 0.00227216	 0.0230619	 0.000467135	 154.0	 154.0	 199.0	 0.0	 0.0	 1	 -30.0	 30.0;
	39	 49	 0.00247224	 0.0108926	 0.000189202	 103.0	 120.0	 139.0	 0.0	 0.0	 1	 -30.0	 30.0;
	39	 2247	 0.0161779	 0.0661187	 0.00133754	 88.0	 88.0	 129.0	 0.0	 0.0	 1	 -30.0	 30.0;
	39	 2251	 0.0027559	 0.0301461	 0.000628156	 162.0	 162.0	 199.0	 0.0	 0.0	 1	 -30.0	 30.0;
	39	 2264	 0.00161076	 0.0176197	 0.000367141	 162.0	 162.0	 199.0	 0.0	 0.0	 1	 -30.0	 30.0;
	39	 2285	 0.00410569	 0.0208909	 0.000473351	 103.0	 103.0	 139.0	 0.0	 0.0	 1	 -30.0	 30.0;
	40	 2039	 0.00237983	 0.0159449	 0.000305282	 115.0	 115.0	 149.0	 0.0	 0.0	 1	 -30.0	 30.0;
	40	 2437	 0.00242299	 0.0112499	 0.000307145	 103.0	 103.0	 139.0	 0.0	 0.0	 1	 -30.0	 30.0;
	40	 2441	 0.00243384	 0.0121725	 0.000216682	 95.0	 95.0	 129.0	 0.0	 0.0	 1	 -30.0	 30.0;
	40	 2477	 0.0120301	 0.0317933	 0.000465105	 59.0	 59.0	 99.0	 0.0	 0.0	 1	 -30.0	 30.0;
	40	 2605	 0.00170517	 0.00682679	 0.00010749	 80.0	 80.0	 129.0	 0.0	 0.0	 1	 -30.0	 30.0;
	41	 1455	 0.00548003	 0.0450527	 0.000873239	 131.0	 131.0	 149.0	 0.0	 0.0	 1	 -30.0	 30.0;
	41	 1472	 0.00340985	 0.0368045	 0.000788022	 162.0	 162.0	 199.0	 0.0	 0.0	 1	 -30.0	 30.0;
	41	 1478	 0.0090866	 0.0845947	 0.00163779	 141.0	 141.0	 149.0	 0.0	 0.0	 1	 -30.0	 30.0;
	41	 1483	 0.0381904	 0.0971263	 0.00153591	 59.0	 59.0	 99.0	 0.0	 0.0	 1	 -30.0	 30.0;
	41	 3079	 0.0449994	 0.150123	 0.00237972	 71.0	 71.0	 119.0	 0.0	 0.0	 1	 -30.0	 30.0;
	41	 3087	 0.0282713	 0.106058	 0.00190637	 80.0	 80.0	 129.0	 0.0	 0.0	 1	 -30.0	 30.0;
	42	 1701	 0.0321464	 0.110277	 0.00165122	 71.0	 71.0	 119.0	 0.0	 0.0	 1	 -30.0	 30.0;
	42	 1711	 0.044408	 0.136383	 0.00255939	 71.0	 71.0	 119.0	 0.0	 0.0	 1	 -30.0	 30.0;
	42	 2824	 0.0520039	 0.274001	 0.00491895	 96.0	 96.0	 129.0	 0.0	 0.0	 1	 -30.0	 30.0;
	43	 2769	 0.0243727	 0.0836083	 0.00125188	 71.0	 71.0	 119.0	 0.0	 0.0	 1	 -30.0	 30.0;
	43	 2772	 0.023828	 0.0605986	 0.000958261	 59.0	 59.0	 99.0	 0.0	 0.0	 1	 -30.0	 30.0;
	43	 2775	 0.0496936	 0.126384	 0.00199862	 59.0	 59.0	 99.0	 0.0	 0.0	 1	 -30.0	 30.0;
	43	 2777	 0.0445322	 0.148564	 0.00235501	 71.0	 71.0	 119.0	 0.0	 0.0	 1	 -30.0	 30.0;
	44	 67	 0.00951088	 0.052771	 0.00100255	 103.0	 103.0	 139.0	 0.0	 0.0	 1	 -30.0	 30.0;
	44	 1429	 0.0311256	 0.106775	 0.00159877	 71.0	 71.0	 119.0	 0.0	 0.0	 1	 -30.0	 30.0;
	44	 1432	 0.0153649	 0.0406067	 0.000594037	 59.0	 59.0	 99.0	 0.0	 0.0	 1	 -30.0	 30.0;
	44	 1433	 0.0232975	 0.0592493	 0.000936923	 59.0	 59.0	 99.0	 0.0	 0.0	 1	 -30.0	 30.0;
	45	 1777	 0.0215021	 0.0568264	 0.00083132	 59.0	 59.0	 99.0	 0.0	 0.0	 1	 -30.0	 30.0;
	45	 1836	 0.0378517	 0.124916	 0.00202373	 71.0	 71.0	 119.0	 0.0	 0.0	 1	 -30.0	 30.0;
	45	 1842	 0.0198308	 0.0654423	 0.00106017	 71.0	 71.0	 119.0	 0.0	 0.0	 1	 -30.0	 30.0;
	45	 1846	 0.0197784	 0.052271	 0.000764677	 59.0	 59.0	 99.0	 0.0	 0.0	 1	 -30.0	 30.0;
	46	 2747	 0.0112197	 0.0260437	 0.00049589	 59.0	 59.0	 99.0	 0.0	 0.0	 1	 -30.0	 30.0;
	46	 2780	 0.05119	 0.293543	 0.00365122	 92.0	 92.0	 129.0	 0.0	 0.0	 1	 -30.0	 30.0;
	47	 2296	 0.000904712	 0.00549822	 0.00162288	 219.0	 219.0	 219.0	 0.0	 0.0	 1	 -30.0	 30.0;
	48	 1734	 0.0114295	 0.0392073	 0.000587045	 71.0	 71.0	 119.0	 0.0	 0.0	 1	 -30.0	 30.0;
	48	 1735	 0.00661976	 0.0363231	 0.000600062	 96.0	 96.0	 129.0	 0.0	 0.0	 1	 -30.0	 30.0;
	49	 2253	 0.00183158	 0.0200352	 0.000417473	 162.0	 162.0	 199.0	 0.0	 0.0	 1	 -30.0	 30.0;
	50	 2466	 0.00328827	 0.00869028	 0.00012713	 59.0	 59.0	 99.0	 0.0	 0.0	 1	 -30.0	 30.0;
	50	 2470	 0.000708438	 0.00753572	 0.000166241	 162.0	 162.0	 199.0	 0.0	 0.0	 1	 -30.0	 30.0;
	50	 2603	 0.000304032	 0.00328159	 7.02616e-05	 162.0	 162.0	 199.0	 0.0	 0.0	 1	 -30.0	 30.0;
	51	 1710	 0.0141416	 0.0425641	 0.000832254	 71.0	 71.0	 119.0	 0.0	 0.0	 1	 -30.0	 30.0;
	51	 1712	 0.010508	 0.0248827	 0.000454931	 59.0	 59.0	 99.0	 0.0	 0.0	 1	 -30.0	 30.0;
	52	 433	 0.0712554	 0.181231	 0.00286614	 59.0	 59.0	 99.0	 0.0	 0.0	 1	 -30.0	 30.0;
	52	 1726	 0.00977703	 0.0335387	 0.000502168	 71.0	 71.0	 119.0	 0.0	 0.0	 1	 -30.0	 30.0;
	52	 1728	 0.00323861	 0.0124595	 0.00021269	 80.0	 80.0	 129.0	 0.0	 0.0	 1	 -30.0	 30.0;
	53	 1869	 0.0178328	 0.0453515	 0.000717151	 59.0	 59.0	 99.0	 0.0	 0.0	 1	 -30.0	 30.0;
	53	 1872	 0.00556759	 0.0141591	 0.000223899	 59.0	 59.0	 99.0	 0.0	 0.0	 1	 -30.0	 30.0;
	53	 1873	 0.00132515	 0.00639363	 0.000112894	 92.0	 92.0	 129.0	 0.0	 0.0	 1	 -30.0	 30.0;
	53	 1874	 0.0040179	 0.0100999	 0.000163532	 59.0	 59.0	 99.0	 0.0	 0.0	 1	 -30.0	 30.0;
	53	 1875	 0.00316246	 0.00794955	 0.000128715	 59.0	 59.0	 99.0	 0.0	 0.0	 1	 -30.0	 30.0;
	53	 1876	 0.00469785	 0.0124155	 0.000181626	 59.0	 59.0	 99.0	 0.0	 0.0	 1	 -30.0	 30.0;
	54	 1574	 0.00635237	 0.0209628	 0.000339594	 71.0	 71.0	 119.0	 0.0	 0.0	 1	 -30.0	 30.0;
	54	 2587	 0.00804269	 0.0204537	 0.000323436	 59.0	 59.0	 99.0	 0.0	 0.0	 1	 -30.0	 30.0;
	55	 1652	 0.0167932	 0.0427077	 0.000675343	 59.0	 59.0	 99.0	 0.0	 0.0	 1	 -30.0	 30.0;
	55	 1672	 0.0184709	 0.0469744	 0.000742814	 59.0	 59.0	 99.0	 0.0	 0.0	 1	 -30.0	 30.0;
	55	 1675	 0.0167296	 0.042546	 0.000672786	 59.0	 59.0	 99.0	 0.0	 0.0	 1	 -30.0	 30.0;
	55	 1677	 0.00411072	 0.0213876	 0.000393628	 96.0	 96.0	 129.0	 0.0	 0.0	 1	 -30.0	 30.0;
	55	 1680	 0.00435084	 0.0264414	 0.000487788	 110.0	 110.0	 139.0	 0.0	 0.0	 1	 -30.0	 30.0;
	55	 3026	 0.0166079	 0.0830637	 0.00147866	 95.0	 95.0	 129.0	 0.0	 0.0	 1	 -30.0	 30.0;
	56	 2164	 0.0289032	 0.169301	 0.00288255	 103.0	 103.0	 139.0	 0.0	 0.0	 1	 -30.0	 30.0;
	56	 2168	 0.0340682	 0.0875774	 0.0013554	 65.0	 72.0	 119.0	 0.0	 0.0	 1	 -30.0	 30.0;
	57	 2148	 0.00473079	 0.0125026	 0.0001829	 59.0	 59.0	 99.0	 0.0	 0.0	 1	 -30.0	 30.0;
	57	 2149	 0.00485649	 0.0128348	 0.00018776	 59.0	 61.0	 99.0	 0.0	 0.0	 1	 -30.0	 30.0;
	57	 2165	 0.0230872	 0.0573035	 0.000952245	 59.0	 59.0	 99.0	 0.0	 0.0	 1	 -30.0	 30.0;
	58	 1369	 0.00801229	 0.0264406	 0.000428332	 71.0	 71.0	 119.0	 0.0	 0.0	 1	 -30.0	 30.0;
	58	 1370	 0.00568456	 0.0236007	 0.000614263	 95.0	 95.0	 129.0	 0.0	 0.0	 1	 -30.0	 30.0;
	58	 1371	 0.0123734	 0.0624494	 0.000824035	 88.0	 88.0	 129.0	 0.0	 0.0	 1	 -30.0	 30.0;
	58	 1377	 0.00479535	 0.030372	 0.000515186	 110.0	 110.0	 139.0	 0.0	 0.0	 1	 -30.0	 30.0;
	58	 1405	 0.0010966	 0.0118362	 0.000253423	 162.0	 162.0	 199.0	 0.0	 0.0	 1	 -30.0	 30.0;
	59	 1651	 0.00867794	 0.0220692	 0.000348982	 59.0	 59.0	 99.0	 0.0	 0.0	 1	 -30.0	 30.0;
...